03D
  CCTOOLS-0919241027

 85 87  0  0  1  0  0  0  0  0999 V2000
    2.7580    0.2380   -0.9370 C   0  0  0  0  0
    4.0260    0.2520   -0.0800 C   0  0  0  0  0
    5.2520    0.3730   -0.9870 C   0  0  0  0  0
    6.4910    0.5090   -0.1400 C   0  0  0  0  0
    7.1840   -0.6190    0.2580 C   0  0  0  0  0
    8.3210   -0.4930    1.0350 C   0  0  0  0  0
    8.7650    0.7600    1.4130 C   0  0  0  0  0
    8.0720    1.8880    1.0150 C   0  0  0  0  0
    6.9380    1.7630    0.2340 C   0  0  0  0  0
    2.8520   -0.8030   -1.9100 O   0  0  0  0  0
    4.1060   -0.9610    0.6710 O   0  0  0  0  0
   -0.9340    0.1080    0.0550 C   0  0  0  0  0
    0.2610    0.1780   -0.8600 C   0  0  0  0  0
    1.5410   -0.0070   -0.0420 C   0  0  0  0  0
   -1.0050   -0.6320   -2.8550 C   0  0  0  0  0
   -2.1530   -1.6420   -2.8950 C   0  0  0  0  0
   -1.1790   -1.5450   -4.0710 C   0  0  0  0  0
    0.1640   -0.9280   -1.9130 C   0  0  0  0  0
   -0.7840   -0.1540    1.2300 O   0  0  0  0  0
   -3.9920   -0.9650    0.5500 C   0  0  0  0  0
   -3.3150    0.4050    0.4790 C   0  0  0  0  0
   -4.3150    1.4420   -0.0350 C   0  0  0  0  0
   -3.6780    2.8320    0.0120 C   0  0  0  0  0
   -4.6300    3.8520   -0.6170 C   0  0  0  0  0
   -3.9920    5.2420   -0.5700 C   0  0  0  0  0
   -3.7200    5.6290    0.8860 C   0  0  0  0  0
   -2.7680    4.6090    1.5150 C   0  0  0  0  0
   -3.4050    3.2190    1.4670 C   0  0  0  0  0
   -2.1700    0.3370   -0.4320 N   0  0  0  0  0
   -4.4490   -1.3390   -0.7520 O   0  0  0  0  0
   -2.9900   -2.0040    1.0560 C   0  0  0  0  0
   -3.6670   -3.3740    1.1270 C   0  0  0  0  0
   -2.6340   -4.4350    1.5130 C   0  0  0  0  0
   -3.3340   -5.7820    1.7050 C   0  0  0  0  0
   -1.5890   -4.5570    0.4030 C   0  0  0  0  0
   -2.5340   -1.6310    2.3580 O   0  0  0  0  0
    2.6500    1.1990   -1.4410 H   0  0  0  0  0
    3.9940    1.1010    0.6030 H   0  0  0  0  0
    5.3340   -0.5190   -1.6090 H   0  0  0  0  0
    5.1480    1.2510   -1.6230 H   0  0  0  0  0
    6.8370   -1.5980   -0.0370 H   0  0  0  0  0
    8.8620   -1.3750    1.3460 H   0  0  0  0  0
    9.6520    0.8580    2.0200 H   0  0  0  0  0
    8.4180    2.8670    1.3110 H   0  0  0  0  0
    6.3990    2.6440   -0.0810 H   0  0  0  0  0
    2.9500   -1.6880   -1.5310 H   0  0  0  0  0
    4.1380   -1.7600    0.1260 H   0  0  0  0  0
    0.2840    1.1500   -1.3540 H   0  0  0  0  0
    1.5770   -1.0240    0.3500 H   0  0  0  0  0
    1.5490    0.7020    0.7860 H   0  0  0  0  0
   -1.2560    0.4210   -2.9770 H   0  0  0  0  0
   -2.0770   -2.5160   -2.2490 H   0  0  0  0  0
   -3.1610   -1.2530   -3.0420 H   0  0  0  0  0
   -1.5460   -1.0920   -4.9920 H   0  0  0  0  0
   -0.4620   -2.3560   -4.1980 H   0  0  0  0  0
    1.0910   -0.9680   -2.4840 H   0  0  0  0  0
   -0.0010   -1.8850   -1.4190 H   0  0  0  0  0
   -4.8410   -0.9160    1.2320 H   0  0  0  0  0
   -2.9720    0.6920    1.4730 H   0  0  0  0  0
   -4.5900    1.2040   -1.0620 H   0  0  0  0  0
   -5.2070    1.4300    0.5920 H   0  0  0  0  0
   -2.7400    2.8210   -0.5420 H   0  0  0  0  0
   -4.8240    3.5760   -1.6530 H   0  0  0  0  0
   -5.5680    3.8630   -0.0620 H   0  0  0  0  0
   -3.0540    5.2300   -1.1240 H   0  0  0  0  0
   -4.6700    5.9680   -1.0180 H   0  0  0  0  0
   -3.2660    6.6190    0.9190 H   0  0  0  0  0
   -4.6580    5.6400    1.4400 H   0  0  0  0  0
   -1.8300    4.5980    0.9600 H   0  0  0  0  0
   -2.5740    4.8850    2.5510 H   0  0  0  0  0
   -4.3440    3.2310    2.0220 H   0  0  0  0  0
   -2.7270    2.4930    1.9150 H   0  0  0  0  0
   -2.3010    0.4570   -1.3850 H   0  0  0  0  0
   -3.7370   -1.5000   -1.3870 H   0  0  0  0  0
   -2.1410   -2.0530    0.3740 H   0  0  0  0  0
   -4.4600   -3.3500    1.8740 H   0  0  0  0  0
   -4.0930   -3.6200    0.1540 H   0  0  0  0  0
   -2.1450   -4.1440    2.4420 H   0  0  0  0  0
   -3.8230   -6.0730    0.7760 H   0  0  0  0  0
   -2.5980   -6.5370    1.9800 H   0  0  0  0  0
   -4.0780   -5.6950    2.4960 H   0  0  0  0  0
   -0.8530   -5.3120    0.6780 H   0  0  0  0  0
   -2.0780   -4.8480   -0.5270 H   0  0  0  0  0
   -1.0910   -3.5970    0.2660 H   0  0  0  0  0
   -3.2380   -1.5680    3.0180 H   0  0  0  0  0
  1  2  1  0  0  0
  1 10  1  0  0  0
  1 37  1  0  0  0
  2 11  1  0  0  0
  2  3  1  0  0  0
  2 38  1  0  0  0
  3  4  1  0  0  0
  3 39  1  0  0  0
  3 40  1  0  0  0
  4  5  1  0  0  0
  5  6  2  0  0  0
  5 41  1  0  0  0
  6 42  1  0  0  0
  7  6  1  0  0  0
  7 43  1  0  0  0
  8  7  2  0  0  0
  8 44  1  0  0  0
  9  4  2  0  0  0
  9  8  1  0  0  0
  9 45  1  0  0  0
 10 46  1  0  0  0
 11 47  1  0  0  0
 12 29  1  0  0  0
 12 13  1  0  0  0
 13 14  1  0  0  0
 13 48  1  0  0  0
 14  1  1  0  0  0
 14 49  1  0  0  0
 14 50  1  0  0  0
 15 17  1  0  0  0
 15 18  1  0  0  0
 15 51  1  0  0  0
 16 15  1  0  0  0
 16 17  1  0  0  0
 16 52  1  0  0  0
 16 53  1  0  0  0
 17 54  1  0  0  0
 17 55  1  0  0  0
 18 13  1  0  0  0
 18 56  1  0  0  0
 18 57  1  0  0  0
 19 12  2  0  0  0
 20 30  1  0  0  0
 20 21  1  0  0  0
 20 58  1  0  0  0
 21 29  1  0  0  0
 21 22  1  0  0  0
 21 59  1  0  0  0
 22 23  1  0  0  0
 22 60  1  0  0  0
 22 61  1  0  0  0
 23 24  1  0  0  0
 23 62  1  0  0  0
 24 25  1  0  0  0
 24 63  1  0  0  0
 24 64  1  0  0  0
 25 65  1  0  0  0
 25 66  1  0  0  0
 26 25  1  0  0  0
 26 67  1  0  0  0
 26 68  1  0  0  0
 27 26  1  0  0  0
 27 69  1  0  0  0
 27 70  1  0  0  0
 28 23  1  0  0  0
 28 27  1  0  0  0
 28 71  1  0  0  0
 28 72  1  0  0  0
 29 73  1  0  0  0
 30 74  1  0  0  0
 31 20  1  0  0  0
 31 75  1  0  0  0
 32 31  1  0  0  0
 32 76  1  0  0  0
 32 77  1  0  0  0
 33 32  1  0  0  0
 33 35  1  0  0  0
 33 78  1  0  0  0
 34 33  1  0  0  0
 34 79  1  0  0  0
 34 80  1  0  0  0
 34 81  1  0  0  0
 35 82  1  0  0  0
 35 83  1  0  0  0
 35 84  1  0  0  0
 36 31  1  0  0  0
 36 85  1  0  0  0
M  END
$$$$
