0LR
  CCTOOLS-0919241030

 47 50  0  0  1  0  0  0  0  0999 V2000
   -1.6900   -3.3540   -1.0540 C   0  0  0  0  0
   -2.0700   -2.0540   -1.3290 C   0  0  0  0  0
   -2.5990   -1.2620   -0.3270 C   0  0  0  0  0
   -2.7460   -1.7690    0.9500 C   0  0  0  0  0
   -2.3660   -3.0700    1.2250 C   0  0  0  0  0
   -1.8430   -3.8640    0.2210 C   0  0  0  0  0
   -3.0130    0.1560   -0.6270 C   0  0  0  0  0
   -2.2090    1.1200    0.2490 C   0  0  0  0  0
   -4.9060    1.7840   -0.5740 C   0  0  0  0  0
   -4.5040    0.3280   -0.3260 C   0  0  0  0  0
   -4.1090    2.6660    0.2880 N   0  0  0  0  0
   -2.6770    2.5530   -0.0150 C   0  0  0  0  0
   -0.8200    1.0050   -0.0650 O   0  0  0  0  0
    0.0500    1.2810    1.0350 C   0  0  0  0  0
    1.4830    1.1300    0.5920 C   0  0  0  0  0
    2.1610    2.2330    0.0770 C   0  0  0  0  0
    3.4550    2.1310   -0.3320 C   0  0  0  0  0
    2.0960   -0.0790    0.7070 C   0  0  0  0  0
    3.4320   -0.2230    0.2960 C   0  0  0  0  0
    4.1210    0.8980   -0.2340 C   0  0  0  0  0
    5.4570    0.7540   -0.6440 C   0  0  0  0  0
    6.0710   -0.4550   -0.5290 C   0  0  0  0  0
    5.3940   -1.5560   -0.0080 C   0  0  0  0  0
    4.1000   -1.4550    0.4000 C   0  0  0  0  0
   -1.2770   -3.9730   -1.8370 H   0  0  0  0  0
   -1.9550   -1.6570   -2.3270 H   0  0  0  0  0
   -3.1580   -1.1500    1.7330 H   0  0  0  0  0
   -2.4810   -3.4670    2.2230 H   0  0  0  0  0
   -1.5460   -4.8790    0.4360 H   0  0  0  0  0
   -2.8250    0.3760   -1.6780 H   0  0  0  0  0
   -2.3660    0.8740    1.3000 H   0  0  0  0  0
   -4.7250    2.0370   -1.6180 H   0  0  0  0  0
   -5.9640    1.9130   -0.3460 H   0  0  0  0  0
   -5.0850   -0.3260   -0.9770 H   0  0  0  0  0
   -4.6970    0.0700    0.7150 H   0  0  0  0  0
   -4.4200    3.6230    0.2130 H   0  0  0  0  0
   -2.1160    3.2410    0.6180 H   0  0  0  0  0
   -2.5070    2.8030   -1.0630 H   0  0  0  0  0
   -0.1170    2.3000    1.3840 H   0  0  0  0  0
   -0.1550    0.5810    1.8450 H   0  0  0  0  0
    1.6520    3.1830    0.0000 H   0  0  0  0  0
    3.9680    2.9940   -0.7300 H   0  0  0  0  0
    1.5600   -0.9240    1.1120 H   0  0  0  0  0
    5.9940    1.5990   -1.0500 H   0  0  0  0  0
    7.0980   -0.5620   -0.8450 H   0  0  0  0  0
    5.9040   -2.5050    0.0720 H   0  0  0  0  0
    3.5880   -2.3180    0.8010 H   0  0  0  0  0
  1 25  1  0  0  0
  2  1  2  0  0  0
  2 26  1  0  0  0
  3  2  1  0  0  0
  4  3  2  0  0  0
  4  5  1  0  0  0
  4 27  1  0  0  0
  5  6  2  0  0  0
  5 28  1  0  0  0
  6  1  1  0  0  0
  6 29  1  0  0  0
  7  8  1  0  0  0
  7  3  1  0  0  0
  7 30  1  0  0  0
  8 31  1  0  0  0
  9 11  1  0  0  0
  9 10  1  0  0  0
  9 32  1  0  0  0
  9 33  1  0  0  0
 10  7  1  0  0  0
 10 34  1  0  0  0
 10 35  1  0  0  0
 11 36  1  0  0  0
 12 11  1  0  0  0
 12  8  1  0  0  0
 12 37  1  0  0  0
 12 38  1  0  0  0
 13  8  1  0  0  0
 13 14  1  0  0  0
 14 39  1  0  0  0
 14 40  1  0  0  0
 15 14  1  0  0  0
 15 16  2  0  0  0
 16 41  1  0  0  0
 17 16  1  0  0  0
 17 42  1  0  0  0
 18 15  1  0  0  0
 18 43  1  0  0  0
 19 18  2  0  0  0
 19 20  1  0  0  0
 20 17  2  0  0  0
 21 20  1  0  0  0
 21 44  1  0  0  0
 22 21  2  0  0  0
 22 45  1  0  0  0
 23 24  2  0  0  0
 23 22  1  0  0  0
 23 46  1  0  0  0
 24 19  1  0  0  0
 24 47  1  0  0  0
M  END
$$$$
