0LS
  CCTOOLS-0919241030

 52 55  0  0  1  0  0  0  0  0999 V2000
   -1.9260    2.5560   -1.4910 N   0  0  0  0  0
   -0.6010    1.9170   -1.3390 C   0  0  0  0  0
   -0.8120    0.6300   -0.5190 C   0  0  0  0  0
   -2.3330    0.5690   -0.2480 C   0  0  0  0  0
   -2.9210    1.4600   -1.3710 C   0  0  0  0  0
   -2.8470   -0.8670   -0.3700 C   0  0  0  0  0
   -4.3020   -0.9140    0.0180 C   0  0  0  0  0
   -0.0400    0.7090    0.7990 C   0  0  0  0  0
    1.3990    0.7270    0.5230 N   0  0  0  0  0
    2.0870   -0.4720    0.3180 C   0  0  0  0  0
    2.0830    1.9440    0.4630 C   0  0  0  0  0
    1.4230   -1.6860    0.4480 C   0  0  0  0  0
    2.1040   -2.8690    0.2400 C   0  0  0  0  0
    3.4460   -2.8470   -0.0980 C   0  0  0  0  0
    4.1090   -1.6390   -0.2280 C   0  0  0  0  0
    3.4330   -0.4530   -0.0220 C   0  0  0  0  0
    2.6180    2.3840   -0.7410 C   0  0  0  0  0
    3.2930    3.5870   -0.7960 C   0  0  0  0  0
    3.4380    4.3530    0.3460 C   0  0  0  0  0
    2.9080    3.9180    1.5470 C   0  0  0  0  0
    2.2250    2.7190    1.6080 C   0  0  0  0  0
   -5.2800   -0.7270   -0.9410 C   0  0  0  0  0
   -6.6150   -0.7700   -0.5840 C   0  0  0  0  0
   -6.9720   -0.9990    0.7320 C   0  0  0  0  0
   -5.9940   -1.1860    1.6900 C   0  0  0  0  0
   -4.6590   -1.1490    1.3330 C   0  0  0  0  0
    4.2990   -4.3360   -0.3590 CL  0  0  0  0  0
   -2.0730    3.2570   -0.7810 H   0  0  0  0  0
   -0.1930    1.6700   -2.3190 H   0  0  0  0  0
    0.0770    2.5890   -0.8130 H   0  0  0  0  0
   -0.4930   -0.2400   -1.0920 H   0  0  0  0  0
   -2.5660    0.9810    0.7340 H   0  0  0  0  0
   -3.8940    1.8540   -1.0790 H   0  0  0  0  0
   -2.9950    0.9030   -2.3050 H   0  0  0  0  0
   -2.7350   -1.2060   -1.4000 H   0  0  0  0  0
   -2.2730   -1.5160    0.2910 H   0  0  0  0  0
   -0.3190    1.6180    1.3310 H   0  0  0  0  0
   -0.2810   -0.1590    1.4130 H   0  0  0  0  0
    0.3760   -1.7040    0.7120 H   0  0  0  0  0
    1.5890   -3.8130    0.3410 H   0  0  0  0  0
    5.1570   -1.6250   -0.4910 H   0  0  0  0  0
    3.9510    0.4890   -0.1270 H   0  0  0  0  0
    2.5050    1.7860   -1.6330 H   0  0  0  0  0
    3.7090    3.9300   -1.7320 H   0  0  0  0  0
    3.9680    5.2930    0.3010 H   0  0  0  0  0
    3.0230    4.5180    2.4370 H   0  0  0  0  0
    1.8070    2.3820    2.5440 H   0  0  0  0  0
   -5.0010   -0.5470   -1.9690 H   0  0  0  0  0
   -7.3790   -0.6230   -1.3330 H   0  0  0  0  0
   -8.0150   -1.0320    1.0100 H   0  0  0  0  0
   -6.2730   -1.3700    2.7170 H   0  0  0  0  0
   -3.8950   -1.2950    2.0820 H   0  0  0  0  0
  1 28  1  0  0  0
  2  1  1  0  0  0
  2 29  1  0  0  0
  2 30  1  0  0  0
  3  8  1  0  0  0
  3  2  1  0  0  0
  3 31  1  0  0  0
  4  3  1  0  0  0
  4  5  1  0  0  0
  4 32  1  0  0  0
  5  1  1  0  0  0
  5 33  1  0  0  0
  5 34  1  0  0  0
  6  4  1  0  0  0
  6 35  1  0  0  0
  6 36  1  0  0  0
  7  6  1  0  0  0
  7 22  2  0  0  0
  8  9  1  0  0  0
  8 37  1  0  0  0
  8 38  1  0  0  0
  9 11  1  0  0  0
 10 16  1  0  0  0
 10  9  1  0  0  0
 11 17  2  0  0  0
 11 21  1  0  0  0
 12 10  2  0  0  0
 12 39  1  0  0  0
 13 14  2  0  0  0
 13 12  1  0  0  0
 13 40  1  0  0  0
 14 15  1  0  0  0
 15 16  2  0  0  0
 15 41  1  0  0  0
 16 42  1  0  0  0
 17 18  1  0  0  0
 17 43  1  0  0  0
 18 19  2  0  0  0
 18 44  1  0  0  0
 19 45  1  0  0  0
 20 19  1  0  0  0
 20 46  1  0  0  0
 21 20  2  0  0  0
 21 47  1  0  0  0
 22 48  1  0  0  0
 23 22  1  0  0  0
 23 49  1  0  0  0
 24 23  2  0  0  0
 24 50  1  0  0  0
 25 26  2  0  0  0
 25 24  1  0  0  0
 25 51  1  0  0  0
 26  7  1  0  0  0
 26 52  1  0  0  0
 27 14  1  0  0  0
M  END
$$$$
