0LT
  CCTOOLS-0919241030

 71 73  0  0  1  0  0  0  0  0999 V2000
   -0.4380    1.0950    1.0930 C   0  0  0  0  0
    0.6380    1.6380    0.4900 N   0  0  0  0  0
    1.9850    1.1980    0.8620 C   0  0  0  0  0
   -1.7970    1.4870    0.6690 C   0  0  0  0  0
    2.4010    0.0230   -0.0260 C   0  0  0  0  0
   -2.7680    0.5090    0.4370 C   0  0  0  0  0
   -4.0370    0.8810    0.0410 C   0  0  0  0  0
    2.4800   -2.3650    0.1740 N   0  0  0  0  0
    3.8510   -0.3990    0.2880 C   0  0  0  0  0
   -0.2900    0.2790    1.9810 O   0  0  0  0  0
   -4.3480    2.2300   -0.1260 C   0  0  0  0  0
   -2.1170    2.8370    0.5060 C   0  0  0  0  0
    4.7140   -0.3130   -0.9730 C   0  0  0  0  0
    0.4610    2.6680   -0.5360 C   0  0  0  0  0
   -3.3840    3.2010    0.1050 C   0  0  0  0  0
    1.5410   -1.2190    0.2920 C   0  0  0  0  0
    3.7470   -1.8610    0.7710 C   0  0  0  0  0
   -4.9840   -0.0690   -0.1870 O   0  0  0  0  0
    6.1490   -0.6100   -0.6200 C   0  0  0  0  0
   -5.5970    2.5940   -0.5150 O   0  0  0  0  0
   -5.7840   -2.3470   -0.2980 C   0  0  0  0  0
   -6.4780   -4.6610   -0.3750 O   0  0  0  0  0
   -4.5960   -1.4310    0.0030 C   0  0  0  0  0
   -5.3680   -3.8050   -0.0940 C   0  0  0  0  0
    1.0140    4.0000   -0.0230 C   0  0  0  0  0
    1.2120    2.2590   -1.8050 C   0  0  0  0  0
    6.9950    0.4170   -0.2440 C   0  0  0  0  0
    6.6170   -1.9100   -0.6670 C   0  0  0  0  0
   -5.8480    3.9920   -0.6660 C   0  0  0  0  0
   -6.1940   -6.0520   -0.2150 C   0  0  0  0  0
    8.3110    0.1450    0.0780 C   0  0  0  0  0
    7.9340   -2.1820   -0.3430 C   0  0  0  0  0
    8.7810   -1.1540    0.0260 C   0  0  0  0  0
    2.6870    2.0210    0.7260 H   0  0  0  0  0
    1.9900    0.8850    1.9060 H   0  0  0  0  0
    2.3040    0.2910   -1.0780 H   0  0  0  0  0
   -2.5250   -0.5360    0.5660 H   0  0  0  0  0
    2.1360   -3.1680    0.6770 H   0  0  0  0  0
    4.2670    0.2310    1.0740 H   0  0  0  0  0
   -1.3700    3.5950    0.6900 H   0  0  0  0  0
    4.3620   -1.0410   -1.7040 H   0  0  0  0  0
    4.6430    0.6890   -1.3940 H   0  0  0  0  0
   -0.6000    2.7780   -0.7620 H   0  0  0  0  0
   -3.6290    4.2450   -0.0260 H   0  0  0  0  0
    1.1450   -1.1560    1.3060 H   0  0  0  0  0
    0.7300   -1.3170   -0.4290 H   0  0  0  0  0
    3.6960   -1.8990    1.8600 H   0  0  0  0  0
    4.5950   -2.4430    0.4100 H   0  0  0  0  0
   -6.6070   -2.1070    0.3750 H   0  0  0  0  0
   -6.1030   -2.2010   -1.3290 H   0  0  0  0  0
   -3.7720   -1.6710   -0.6690 H   0  0  0  0  0
   -4.2760   -1.5770    1.0350 H   0  0  0  0  0
   -4.5450   -4.0450   -0.7670 H   0  0  0  0  0
   -5.0490   -3.9510    0.9370 H   0  0  0  0  0
    2.0750    3.8900    0.2020 H   0  0  0  0  0
    0.8820    4.7660   -0.7870 H   0  0  0  0  0
    0.4790    4.2910    0.8810 H   0  0  0  0  0
    0.8190    1.3110   -2.1700 H   0  0  0  0  0
    1.0810    3.0260   -2.5680 H   0  0  0  0  0
    2.2730    2.1490   -1.5790 H   0  0  0  0  0
    6.6270    1.4320   -0.2040 H   0  0  0  0  0
    5.9560   -2.7120   -0.9560 H   0  0  0  0  0
   -5.6790    4.4970    0.2850 H   0  0  0  0  0
   -5.1750    4.4020   -1.4200 H   0  0  0  0  0
   -6.8810    4.1450   -0.9800 H   0  0  0  0  0
   -7.0860   -6.6340   -0.4470 H   0  0  0  0  0
   -5.3880   -6.3390   -0.8900 H   0  0  0  0  0
   -5.8920   -6.2450    0.8140 H   0  0  0  0  0
    8.9720    0.9470    0.3710 H   0  0  0  0  0
    8.3000   -3.1970   -0.3800 H   0  0  0  0  0
    9.8100   -1.3670    0.2780 H   0  0  0  0  0
  1  4  1  0  0  0
  2  1  1  0  0  0
  2 14  1  0  0  0
  3  2  1  0  0  0
  3 34  1  0  0  0
  3 35  1  0  0  0
  4 12  2  0  0  0
  5  3  1  0  0  0
  5 36  1  0  0  0
  6  7  2  0  0  0
  6  4  1  0  0  0
  6 37  1  0  0  0
  7 11  1  0  0  0
  8 16  1  0  0  0
  8 17  1  0  0  0
  8 38  1  0  0  0
  9  5  1  0  0  0
  9 39  1  0  0  0
 10  1  2  0  0  0
 11 20  1  0  0  0
 11 15  2  0  0  0
 12 15  1  0  0  0
 12 40  1  0  0  0
 13  9  1  0  0  0
 13 41  1  0  0  0
 13 42  1  0  0  0
 14 26  1  0  0  0
 14 43  1  0  0  0
 15 44  1  0  0  0
 16  5  1  0  0  0
 16 45  1  0  0  0
 16 46  1  0  0  0
 17  9  1  0  0  0
 17 47  1  0  0  0
 17 48  1  0  0  0
 18  7  1  0  0  0
 19 13  1  0  0  0
 19 28  2  0  0  0
 20 29  1  0  0  0
 21 49  1  0  0  0
 21 50  1  0  0  0
 22 24  1  0  0  0
 23 21  1  0  0  0
 23 18  1  0  0  0
 23 51  1  0  0  0
 23 52  1  0  0  0
 24 21  1  0  0  0
 24 53  1  0  0  0
 24 54  1  0  0  0
 25 14  1  0  0  0
 25 55  1  0  0  0
 25 56  1  0  0  0
 25 57  1  0  0  0
 26 58  1  0  0  0
 26 59  1  0  0  0
 26 60  1  0  0  0
 27 19  1  0  0  0
 27 61  1  0  0  0
 28 62  1  0  0  0
 29 63  1  0  0  0
 29 64  1  0  0  0
 29 65  1  0  0  0
 30 22  1  0  0  0
 30 66  1  0  0  0
 30 67  1  0  0  0
 30 68  1  0  0  0
 31 27  2  0  0  0
 31 33  1  0  0  0
 31 69  1  0  0  0
 32 28  1  0  0  0
 32 70  1  0  0  0
 33 32  2  0  0  0
 33 71  1  0  0  0
M  END
$$$$
