0LU
  CCTOOLS-0919241030

 46 49  0  0  1  0  0  0  0  0999 V2000
   -0.9000    1.0350    0.6340 C   0  0  0  0  0
   -1.0410   -0.4380    0.8390 C   0  0  0  0  0
   -1.5390    1.7250   -0.3790 C   0  0  0  0  0
   -0.0630    1.7310    1.5000 C   0  0  0  0  0
   -2.3650   -1.0150    0.4580 C   0  0  0  0  0
    0.0430   -1.1430    0.0220 C   0  0  0  0  0
   -2.6500    0.9110   -1.4750 S   0  0  0  0  0
   -1.3230    3.0930   -0.5390 C   0  0  0  0  0
    0.1420    3.0860    1.3460 C   0  0  0  0  0
   -3.1470   -0.5110   -0.5650 C   0  0  0  0  0
   -2.8210   -2.1170    1.1740 C   0  0  0  0  0
    1.4210   -0.6610    0.4800 C   0  0  0  0  0
   -0.4850    3.7710    0.3210 C   0  0  0  0  0
   -4.3620   -1.1180   -0.8820 C   0  0  0  0  0
   -4.0270   -2.7100    0.8650 C   0  0  0  0  0
    2.5070   -1.4550   -0.2490 C   0  0  0  0  0
    1.5640    0.7280    0.1790 O   0  0  0  0  0
   -4.8000   -2.2130   -0.1690 C   0  0  0  0  0
    3.8260   -1.0770    0.2770 N   0  0  0  0  0
    4.8750   -1.9840   -0.2260 C   0  0  0  0  0
    4.1740    0.3060   -0.1110 C   0  0  0  0  0
    5.9310   -1.1110   -0.9360 C   0  0  0  0  0
    5.7110    0.2880   -0.3030 C   0  0  0  0  0
   -0.8640   -0.6550    1.8920 H   0  0  0  0  0
    0.4310    1.2040    2.3030 H   0  0  0  0  0
   -0.0330   -2.2200    0.1700 H   0  0  0  0  0
   -0.0900   -0.9110   -1.0350 H   0  0  0  0  0
   -1.8140    3.6240   -1.3410 H   0  0  0  0  0
    0.7940    3.6130    2.0270 H   0  0  0  0  0
   -2.2230   -2.5130    1.9820 H   0  0  0  0  0
    1.5200   -0.8120    1.5550 H   0  0  0  0  0
   -0.3190    4.8310    0.1950 H   0  0  0  0  0
   -4.9620   -0.7280   -1.6910 H   0  0  0  0  0
   -4.3690   -3.5630    1.4320 H   0  0  0  0  0
    2.3450   -2.5220   -0.0910 H   0  0  0  0  0
    2.4650   -1.2350   -1.3160 H   0  0  0  0  0
    1.4870    0.9370   -0.7620 H   0  0  0  0  0
   -5.7420   -2.6810   -0.4150 H   0  0  0  0  0
    5.3330   -2.5180    0.6070 H   0  0  0  0  0
    4.4440   -2.6950   -0.9300 H   0  0  0  0  0
    3.6780    0.5760   -1.0430 H   0  0  0  0  0
    3.8980    1.0030    0.6810 H   0  0  0  0  0
    6.9370   -1.4760   -0.7250 H   0  0  0  0  0
    5.7490   -1.0840   -2.0100 H   0  0  0  0  0
    6.0290    1.0780   -0.9840 H   0  0  0  0  0
    6.2260    0.3690    0.6540 H   0  0  0  0  0
  1  3  2  0  0  0
  1  4  1  0  0  0
  2  5  1  0  0  0
  2  1  1  0  0  0
  2 24  1  0  0  0
  3  8  1  0  0  0
  4  9  2  0  0  0
  4 25  1  0  0  0
  5 10  2  0  0  0
  6  2  1  0  0  0
  6 26  1  0  0  0
  6 27  1  0  0  0
  7  3  1  0  0  0
  8 13  2  0  0  0
  8 28  1  0  0  0
  9 13  1  0  0  0
  9 29  1  0  0  0
 10 14  1  0  0  0
 10  7  1  0  0  0
 11 15  2  0  0  0
 11  5  1  0  0  0
 11 30  1  0  0  0
 12  6  1  0  0  0
 12 31  1  0  0  0
 13 32  1  0  0  0
 14 33  1  0  0  0
 15 18  1  0  0  0
 15 34  1  0  0  0
 16 12  1  0  0  0
 16 35  1  0  0  0
 16 36  1  0  0  0
 17 12  1  0  0  0
 17 37  1  0  0  0
 18 14  2  0  0  0
 18 38  1  0  0  0
 19 16  1  0  0  0
 20 19  1  0  0  0
 20 39  1  0  0  0
 20 40  1  0  0  0
 21 19  1  0  0  0
 21 41  1  0  0  0
 21 42  1  0  0  0
 22 20  1  0  0  0
 22 43  1  0  0  0
 22 44  1  0  0  0
 23 22  1  0  0  0
 23 21  1  0  0  0
 23 45  1  0  0  0
 23 46  1  0  0  0
M  END
$$$$
