0LW
  CCTOOLS-0919241030

 46 49  0  0  1  0  0  0  0  0999 V2000
   -2.3790   -1.0120   -0.4540 C   0  0  0  0  0
   -1.0500   -0.4480   -0.8330 C   0  0  0  0  0
   -3.1760   -0.4830    0.5440 C   0  0  0  0  0
   -2.8220   -2.1360   -1.1440 C   0  0  0  0  0
   -0.8850    1.0230   -0.6320 C   0  0  0  0  0
    0.0260   -1.1660   -0.0160 C   0  0  0  0  0
   -2.6840    0.9520    1.4370 S   0  0  0  0  0
   -4.3950   -1.0810    0.8590 C   0  0  0  0  0
   -4.0310   -2.7240   -0.8340 C   0  0  0  0  0
   -1.5480    1.7380    0.3480 C   0  0  0  0  0
   -0.0120    1.6950   -1.4820 C   0  0  0  0  0
    1.4090   -0.6970   -0.4710 C   0  0  0  0  0
   -4.8210   -2.1980    0.1720 C   0  0  0  0  0
   -1.3270    3.1070    0.4860 C   0  0  0  0  0
    0.2000    3.0510   -1.3470 C   0  0  0  0  0
    2.4860   -1.5050    0.2580 C   0  0  0  0  0
    1.5670    0.6900   -0.1670 O   0  0  0  0  0
   -0.4560    3.7620   -0.3590 C   0  0  0  0  0
    3.8140   -1.0550   -0.1790 N   0  0  0  0  0
    4.8710   -1.9640    0.3170 C   0  0  0  0  0
    4.1350    0.2830    0.3810 C   0  0  0  0  0
    6.1110   -1.0980    0.6090 C   0  0  0  0  0
    5.6790    0.3490    0.2790 C   0  0  0  0  0
   -0.8740   -0.6690   -1.8860 H   0  0  0  0  0
   -2.2130   -2.5530   -1.9320 H   0  0  0  0  0
   -0.1070   -0.9340    1.0410 H   0  0  0  0  0
   -0.0620   -2.2420   -0.1660 H   0  0  0  0  0
   -5.0100   -0.6670    1.6440 H   0  0  0  0  0
   -4.3610   -3.5960   -1.3790 H   0  0  0  0  0
    0.5070    1.1480   -2.2550 H   0  0  0  0  0
    1.5080   -0.8470   -1.5460 H   0  0  0  0  0
   -5.7660   -2.6600    0.4180 H   0  0  0  0  0
   -1.8420    3.6590    1.2590 H   0  0  0  0  0
    0.8800    3.5590   -2.0150 H   0  0  0  0  0
    2.3870   -1.3550    1.3330 H   0  0  0  0  0
    2.3660   -2.5630    0.0260 H   0  0  0  0  0
    1.4910    0.8970    0.7750 H   0  0  0  0  0
   -0.2880    4.8230   -0.2500 H   0  0  0  0  0
    4.5380   -2.4560    1.2310 H   0  0  0  0  0
    5.1060   -2.7100   -0.4420 H   0  0  0  0  0
    3.6750    1.0700   -0.2160 H   0  0  0  0  0
    3.8120    0.3520    1.4200 H   0  0  0  0  0
    6.3900   -1.1790    1.6590 H   0  0  0  0  0
    6.9420   -1.4000   -0.0290 H   0  0  0  0  0
    5.9870    0.6230   -0.7310 H   0  0  0  0  0
    6.0840    1.0490    1.0100 H   0  0  0  0  0
  1  3  1  0  0  0
  1  2  1  0  0  0
  2  5  1  0  0  0
  2 24  1  0  0  0
  3  7  1  0  0  0
  4  1  2  0  0  0
  4 25  1  0  0  0
  5 10  2  0  0  0
  5 11  1  0  0  0
  6  2  1  0  0  0
  6 26  1  0  0  0
  6 27  1  0  0  0
  7 10  1  0  0  0
  8  3  2  0  0  0
  8 28  1  0  0  0
  9 13  2  0  0  0
  9  4  1  0  0  0
  9 29  1  0  0  0
 10 14  1  0  0  0
 11 15  2  0  0  0
 11 30  1  0  0  0
 12 17  1  0  0  0
 12  6  1  0  0  0
 12 31  1  0  0  0
 13  8  1  0  0  0
 13 32  1  0  0  0
 14 18  2  0  0  0
 14 33  1  0  0  0
 15 18  1  0  0  0
 15 34  1  0  0  0
 16 12  1  0  0  0
 16 35  1  0  0  0
 16 36  1  0  0  0
 17 37  1  0  0  0
 18 38  1  0  0  0
 19 16  1  0  0  0
 20 19  1  0  0  0
 20 39  1  0  0  0
 20 40  1  0  0  0
 21 19  1  0  0  0
 21 41  1  0  0  0
 21 42  1  0  0  0
 22 23  1  0  0  0
 22 20  1  0  0  0
 22 43  1  0  0  0
 22 44  1  0  0  0
 23 21  1  0  0  0
 23 45  1  0  0  0
 23 46  1  0  0  0
M  END
$$$$
