0M3
  CCTOOLS-0919241030

 65 68  0  0  1  0  0  0  0  0999 V2000
   -5.1440    4.7180   -0.9300 C   0  0  0  0  0
   -5.2180    3.2260   -0.7270 C   0  0  0  0  0
   -5.5600    2.4010   -1.7820 C   0  0  0  0  0
   -5.6280    1.0330   -1.5960 C   0  0  0  0  0
   -5.3540    0.4900   -0.3550 C   0  0  0  0  0
   -5.0110    1.3150    0.7000 C   0  0  0  0  0
   -4.9370    2.6830    0.5120 C   0  0  0  0  0
   -5.4420   -1.2530   -0.1170 S   0  0  0  0  0
   -5.6640   -1.4590    1.2710 O   0  0  0  0  0
   -6.3090   -1.7530   -1.1260 O   0  0  0  0  0
   -3.9400   -1.8690   -0.4460 N   0  0  0  0  0
   -2.8000   -1.5130    0.4030 C   0  0  0  0  0
   -2.6050   -2.5880    1.4740 C   0  0  0  0  0
   -1.4500   -2.2410    2.3120 N   0  0  0  0  0
   -0.2150   -2.1900    1.5190 C   0  0  0  0  0
   -0.3390   -1.1030    0.4490 C   0  0  0  0  0
   -1.5350   -1.4170   -0.4540 C   0  0  0  0  0
    0.9200   -1.0660   -0.3780 C   0  0  0  0  0
    0.8670   -1.2660   -1.5730 O   0  0  0  0  0
    2.1060   -0.8090    0.2100 N   0  0  0  0  0
    3.3300   -0.7730   -0.5940 C   0  0  0  0  0
    4.5250   -0.4640    0.3100 C   0  0  0  0  0
    5.7970   -0.5470   -0.4930 C   0  0  0  0  0
    6.8430   -1.3370   -0.0520 C   0  0  0  0  0
    8.0100   -1.4130   -0.7890 C   0  0  0  0  0
    8.1310   -0.7010   -1.9680 C   0  0  0  0  0
    7.0850    0.0880   -2.4090 C   0  0  0  0  0
    5.9160    0.1610   -1.6740 C   0  0  0  0  0
    4.3790    0.9240    0.8780 C   0  0  0  0  0
    4.1420    1.9940    0.0360 C   0  0  0  0  0
    4.0090    3.2680    0.5570 C   0  0  0  0  0
    4.1130    3.4710    1.9200 C   0  0  0  0  0
    4.3490    2.4010    2.7630 C   0  0  0  0  0
    4.4780    1.1270    2.2420 C   0  0  0  0  0
   -6.1180    5.1610   -0.7230 H   0  0  0  0  0
   -4.4010    5.1400   -0.2540 H   0  0  0  0  0
   -4.8600    4.9310   -1.9610 H   0  0  0  0  0
   -5.7750    2.8260   -2.7520 H   0  0  0  0  0
   -5.8960    0.3890   -2.4200 H   0  0  0  0  0
   -4.7970    0.8910    1.6700 H   0  0  0  0  0
   -4.6690    3.3270    1.3370 H   0  0  0  0  0
   -3.8150   -2.4660   -1.2000 H   0  0  0  0  0
   -2.9900   -0.5520    0.8820 H   0  0  0  0  0
   -3.4990   -2.6480    2.0950 H   0  0  0  0  0
   -2.4300   -3.5510    0.9950 H   0  0  0  0  0
   -1.6040   -1.3700    2.7980 H   0  0  0  0  0
    0.6270   -1.9620    2.1730 H   0  0  0  0  0
   -0.0510   -3.1550    1.0400 H   0  0  0  0  0
   -0.4890   -0.1360    0.9290 H   0  0  0  0  0
   -1.3670   -2.3660   -0.9630 H   0  0  0  0  0
   -1.6530   -0.6230   -1.1910 H   0  0  0  0  0
    2.1480   -0.6490    1.1660 H   0  0  0  0  0
    3.4780   -1.7400   -1.0740 H   0  0  0  0  0
    3.2410    0.0020   -1.3560 H   0  0  0  0  0
    4.5610   -1.1880    1.1240 H   0  0  0  0  0
    6.7480   -1.8930    0.8680 H   0  0  0  0  0
    8.8270   -2.0290   -0.4440 H   0  0  0  0  0
    9.0430   -0.7600   -2.5430 H   0  0  0  0  0
    7.1800    0.6450   -3.3300 H   0  0  0  0  0
    5.0980    0.7740   -2.0220 H   0  0  0  0  0
    4.0620    1.8360   -1.0300 H   0  0  0  0  0
    3.8250    4.1040   -0.1010 H   0  0  0  0  0
    4.0090    4.4660    2.3270 H   0  0  0  0  0
    4.4300    2.5590    3.8280 H   0  0  0  0  0
    4.6590    0.2900    2.9000 H   0  0  0  0  0
  1 35  1  0  0  0
  1 36  1  0  0  0
  1 37  1  0  0  0
  2  3  1  0  0  0
  2  1  1  0  0  0
  3 38  1  0  0  0
  4  3  2  0  0  0
  4 39  1  0  0  0
  5  4  1  0  0  0
  6  5  2  0  0  0
  6  7  1  0  0  0
  6 40  1  0  0  0
  7  2  2  0  0  0
  7 41  1  0  0  0
  8 11  1  0  0  0
  8  5  1  0  0  0
  9  8  2  0  0  0
 10  8  2  0  0  0
 11 42  1  0  0  0
 12 13  1  0  0  0
 12 11  1  0  0  0
 12 17  1  0  0  0
 12 43  1  0  0  0
 13 44  1  0  0  0
 13 45  1  0  0  0
 14 13  1  0  0  0
 14 15  1  0  0  0
 14 46  1  0  0  0
 15 16  1  0  0  0
 15 47  1  0  0  0
 15 48  1  0  0  0
 16 17  1  0  0  0
 16 18  1  0  0  0
 16 49  1  0  0  0
 17 50  1  0  0  0
 17 51  1  0  0  0
 18 19  2  0  0  0
 20 18  1  0  0  0
 20 21  1  0  0  0
 20 52  1  0  0  0
 21 22  1  0  0  0
 21 53  1  0  0  0
 21 54  1  0  0  0
 22 23  1  0  0  0
 22 29  1  0  0  0
 22 55  1  0  0  0
 23 28  2  0  0  0
 24 25  2  0  0  0
 24 23  1  0  0  0
 24 56  1  0  0  0
 25 26  1  0  0  0
 25 57  1  0  0  0
 26 27  2  0  0  0
 26 58  1  0  0  0
 27 59  1  0  0  0
 28 27  1  0  0  0
 28 60  1  0  0  0
 29 34  1  0  0  0
 30 29  2  0  0  0
 30 31  1  0  0  0
 30 61  1  0  0  0
 31 32  2  0  0  0
 31 62  1  0  0  0
 32 33  1  0  0  0
 32 63  1  0  0  0
 33 64  1  0  0  0
 34 33  2  0  0  0
 34 65  1  0  0  0
M  END
$$$$
