0ME
  CCTOOLS-0919241030

 46 49  0  0  1  0  0  0  0  0999 V2000
   -1.2820   -1.1050   -0.4280 C   0  0  0  0  0
   -2.1780   -1.7090    0.4380 C   0  0  0  0  0
   -3.1930   -1.0040    0.9940 O   0  0  0  0  0
   -1.4060    0.3540   -0.7700 C   0  0  0  0  0
   -0.1210   -3.1880   -0.6780 C   0  0  0  0  0
   -1.0130   -3.7930    0.1890 C   0  0  0  0  0
   -2.0400   -3.0580    0.7460 C   0  0  0  0  0
   -0.2550   -1.8480   -0.9850 C   0  0  0  0  0
   -2.7810    0.8620   -0.4310 C   0  0  0  0  0
   -3.6070    0.1540    0.4270 C   0  0  0  0  0
   -4.8740    0.6430    0.7240 C   0  0  0  0  0
   -5.3070    1.8290    0.1680 C   0  0  0  0  0
   -4.4790    2.5350   -0.6860 C   0  0  0  0  0
   -3.2250    2.0470   -0.9910 C   0  0  0  0  0
   -0.3660    1.1480    0.0220 C   0  0  0  0  0
    0.9780    0.7810   -0.4310 N   0  0  0  0  0
    2.0610    1.2670    0.2080 C   0  0  0  0  0
    1.9230    2.0090    1.1570 O   0  0  0  0  0
    3.4430    0.8880   -0.2580 C   0  0  0  0  0
    4.4870    1.5670    0.6340 C   0  0  0  0  0
    5.8860    1.1300    0.1920 C   0  0  0  0  0
    5.9860   -0.3960    0.2670 C   0  0  0  0  0
    4.9680   -0.9970   -0.6040 N   0  0  0  0  0
    3.6140   -0.6300   -0.1700 C   0  0  0  0  0
   -1.2260    0.4900   -1.8370 H   0  0  0  0  0
    0.6820   -3.7640   -1.1140 H   0  0  0  0  0
   -0.9060   -4.8400    0.4300 H   0  0  0  0  0
   -2.7360   -3.5310    1.4230 H   0  0  0  0  0
    0.4430   -1.3780   -1.6620 H   0  0  0  0  0
   -5.5220    0.0930    1.3910 H   0  0  0  0  0
   -6.2920    2.2070    0.4000 H   0  0  0  0  0
   -4.8200    3.4610   -1.1260 H   0  0  0  0  0
   -2.5800    2.5990   -1.6580 H   0  0  0  0  0
   -0.5240    2.2150   -0.1380 H   0  0  0  0  0
   -0.4670    0.9210    1.0830 H   0  0  0  0  0
    1.0890    0.1870   -1.1900 H   0  0  0  0  0
    3.5810    1.2110   -1.2900 H   0  0  0  0  0
    4.3970    2.6490    0.5420 H   0  0  0  0  0
    4.3240    1.2740    1.6720 H   0  0  0  0  0
    6.0630    1.4560   -0.8320 H   0  0  0  0  0
    6.6310    1.5760    0.8510 H   0  0  0  0  0
    6.9770   -0.7110   -0.0610 H   0  0  0  0  0
    5.8230   -0.7210    1.2940 H   0  0  0  0  0
    5.1210   -0.7420   -1.5680 H   0  0  0  0  0
    3.4620   -0.9540    0.8590 H   0  0  0  0  0
    2.8820   -1.1150   -0.8150 H   0  0  0  0  0
  1  2  2  0  0  0
  1  8  1  0  0  0
  2  7  1  0  0  0
  3  2  1  0  0  0
  4  1  1  0  0  0
  4 25  1  0  0  0
  5  6  1  0  0  0
  5 26  1  0  0  0
  6 27  1  0  0  0
  7  6  2  0  0  0
  7 28  1  0  0  0
  8  5  2  0  0  0
  8 29  1  0  0  0
  9  4  1  0  0  0
  9 10  2  0  0  0
 10  3  1  0  0  0
 11 10  1  0  0  0
 11 30  1  0  0  0
 12 11  2  0  0  0
 12 31  1  0  0  0
 13 14  2  0  0  0
 13 12  1  0  0  0
 13 32  1  0  0  0
 14  9  1  0  0  0
 14 33  1  0  0  0
 15  4  1  0  0  0
 15 34  1  0  0  0
 15 35  1  0  0  0
 16 15  1  0  0  0
 16 36  1  0  0  0
 17 19  1  0  0  0
 17 16  1  0  0  0
 18 17  2  0  0  0
 19 24  1  0  0  0
 19 37  1  0  0  0
 20 21  1  0  0  0
 20 19  1  0  0  0
 20 38  1  0  0  0
 20 39  1  0  0  0
 21 22  1  0  0  0
 21 40  1  0  0  0
 21 41  1  0  0  0
 22 23  1  0  0  0
 22 42  1  0  0  0
 22 43  1  0  0  0
 23 44  1  0  0  0
 24 23  1  0  0  0
 24 45  1  0  0  0
 24 46  1  0  0  0
M  END
$$$$
