0MJ
  CCTOOLS-0919241030

 64 68  0  0  1  0  0  0  0  0999 V2000
   -4.3500   -0.5750   -0.3920 C   0  0  0  0  0
   -5.8070    1.6600    0.6260 O   0  0  0  0  0
   -5.6250   -0.7070    0.3960 C   0  0  0  0  0
   -4.2040    0.8230   -0.9290 C   0  0  0  0  0
   -6.2870    0.4160    0.8640 C   0  0  0  0  0
   -4.9390    1.8680   -0.3930 C   0  0  0  0  0
   -3.1600   -0.8930    0.5160 C   0  0  0  0  0
   -3.3250    1.0610   -1.9710 C   0  0  0  0  0
   -6.1380   -1.9660    0.6510 C   0  0  0  0  0
   -7.4640    0.2700    1.5900 C   0  0  0  0  0
   -4.7870    3.1510   -0.9060 C   0  0  0  0  0
   -7.3080   -2.1080    1.3720 C   0  0  0  0  0
   -3.1770    2.3380   -2.4780 C   0  0  0  0  0
   -7.9700   -0.9890    1.8430 C   0  0  0  0  0
   -3.9090    3.3830   -1.9440 C   0  0  0  0  0
   -1.9260   -0.8830   -0.2730 N   0  0  0  0  0
   -0.7440   -1.1390    0.3210 C   0  0  0  0  0
    0.5250   -1.1290   -0.4910 C   0  0  0  0  0
    1.7160   -1.4470    0.4170 C   0  0  0  0  0
    2.8310   -2.5400   -1.5320 C   0  0  0  0  0
    1.6800   -2.1900   -2.3730 N   0  0  0  0  0
    2.9930   -1.4940   -0.4260 C   0  0  0  0  0
    0.4350   -2.1850   -1.5950 C   0  0  0  0  0
   -0.7010   -1.3770    1.5090 O   0  0  0  0  0
    4.1290   -1.8550    0.4250 N   0  0  0  0  0
    5.6230   -1.2020    0.1340 S   0  0  0  0  0
    6.4880   -1.7150    1.1380 O   0  0  0  0  0
    5.8660   -1.3610   -1.2570 O   0  0  0  0  0
    5.5000    0.5320    0.4220 C   0  0  0  0  0
    5.7490    1.0430    1.6820 C   0  0  0  0  0
    5.3060    3.2530    0.8730 C   0  0  0  0  0
    5.0620    2.7430   -0.3880 C   0  0  0  0  0
    5.6520    2.4040    1.9080 C   0  0  0  0  0
    5.1590    1.3820   -0.6140 C   0  0  0  0  0
    5.2000    4.7360    1.1190 C   0  0  0  0  0
   -4.3650   -1.2800   -1.2230 H   0  0  0  0  0
   -3.0930   -0.1430    1.3040 H   0  0  0  0  0
   -3.2980   -1.8780    0.9630 H   0  0  0  0  0
   -2.7530    0.2460   -2.3890 H   0  0  0  0  0
   -5.6220   -2.8420    0.2850 H   0  0  0  0  0
   -7.9820    1.1430    1.9580 H   0  0  0  0  0
   -5.3590    3.9680   -0.4900 H   0  0  0  0  0
   -7.7050   -3.0930    1.5680 H   0  0  0  0  0
   -2.4900    2.5200   -3.2910 H   0  0  0  0  0
   -8.8840   -1.1010    2.4070 H   0  0  0  0  0
   -3.7920    4.3810   -2.3410 H   0  0  0  0  0
   -1.9600   -0.6930   -1.2240 H   0  0  0  0  0
    0.6630   -0.1450   -0.9400 H   0  0  0  0  0
    1.8110   -0.6730    1.1780 H   0  0  0  0  0
    1.5600   -2.4130    0.8970 H   0  0  0  0  0
    2.6680   -3.5200   -1.0830 H   0  0  0  0  0
    3.7330   -2.5660   -2.1430 H   0  0  0  0  0
    1.8230   -1.3030   -2.8310 H   0  0  0  0  0
    3.1700   -0.5160   -0.8740 H   0  0  0  0  0
    0.2830   -3.1670   -1.1460 H   0  0  0  0  0
   -0.4040   -1.9540   -2.2510 H   0  0  0  0  0
    4.0060   -2.4760    1.1600 H   0  0  0  0  0
    6.0190    0.3800    2.4900 H   0  0  0  0  0
    4.7920    3.4060   -1.1960 H   0  0  0  0  0
    5.8460    2.8030    2.8920 H   0  0  0  0  0
    4.9690    0.9830   -1.5990 H   0  0  0  0  0
    6.1680    5.2040    0.9380 H   0  0  0  0  0
    4.4570    5.1640    0.4460 H   0  0  0  0  0
    4.8990    4.9120    2.1520 H   0  0  0  0  0
  1  3  1  0  0  0
  1  4  1  0  0  0
  1 36  1  0  0  0
  3  5  2  0  0  0
  4  6  1  0  0  0
  5 10  1  0  0  0
  5  2  1  0  0  0
  6  2  1  0  0  0
  6 11  2  0  0  0
  7  1  1  0  0  0
  7 37  1  0  0  0
  7 38  1  0  0  0
  8  4  2  0  0  0
  8 13  1  0  0  0
  8 39  1  0  0  0
  9 12  2  0  0  0
  9  3  1  0  0  0
  9 40  1  0  0  0
 10 41  1  0  0  0
 11 42  1  0  0  0
 12 14  1  0  0  0
 12 43  1  0  0  0
 13 15  2  0  0  0
 13 44  1  0  0  0
 14 10  2  0  0  0
 14 45  1  0  0  0
 15 11  1  0  0  0
 15 46  1  0  0  0
 16 17  1  0  0  0
 16  7  1  0  0  0
 16 47  1  0  0  0
 17 24  2  0  0  0
 18 19  1  0  0  0
 18 17  1  0  0  0
 18 48  1  0  0  0
 19 49  1  0  0  0
 19 50  1  0  0  0
 20 22  1  0  0  0
 20 51  1  0  0  0
 20 52  1  0  0  0
 21 20  1  0  0  0
 21 23  1  0  0  0
 21 53  1  0  0  0
 22 25  1  0  0  0
 22 19  1  0  0  0
 22 54  1  0  0  0
 23 18  1  0  0  0
 23 55  1  0  0  0
 23 56  1  0  0  0
 25 57  1  0  0  0
 26 25  1  0  0  0
 26 29  1  0  0  0
 27 26  2  0  0  0
 28 26  2  0  0  0
 29 30  1  0  0  0
 30 33  2  0  0  0
 30 58  1  0  0  0
 31 33  1  0  0  0
 31 35  1  0  0  0
 32 31  2  0  0  0
 32 59  1  0  0  0
 33 60  1  0  0  0
 34 29  2  0  0  0
 34 32  1  0  0  0
 34 61  1  0  0  0
 35 62  1  0  0  0
 35 63  1  0  0  0
 35 64  1  0  0  0
M  END
$$$$
