0N0
  CCTOOLS-0919241030

 80 84  0  0  1  0  0  0  0  0999 V2000
   -3.1400    1.7640   -2.2220 C   0  0  0  0  0
   -3.5140    1.2920   -0.8150 C   0  0  0  0  0
   -2.2820    1.3690    0.0890 C   0  0  0  0  0
   -1.1620    0.5160   -0.5130 C   0  0  0  0  0
   -0.8550    1.0110   -1.9280 C   0  0  0  0  0
   -2.0660    0.9160   -2.7540 N   0  0  0  0  0
   -4.5720    2.1510   -0.2760 N   0  0  0  0  0
    0.0750    0.6340    0.3400 C   0  0  0  0  0
   -6.1590    1.7010   -0.4220 S   0  0  0  0  0
   -6.3740    0.2340    0.5300 C   0  0  0  0  0
   -6.9230    2.7120    0.2210 O   0  0  0  0  0
   -6.3480    1.3300   -1.7800 O   0  0  0  0  0
   -6.7340    0.3200    1.8620 C   0  0  0  0  0
   -6.9030   -0.8310    2.6080 C   0  0  0  0  0
   -6.7120   -2.0690    2.0230 C   0  0  0  0  0
   -6.3520   -2.1550    0.6910 C   0  0  0  0  0
   -6.1890   -1.0040   -0.0570 C   0  0  0  0  0
   -6.8960   -3.3230    2.8370 C   0  0  0  0  0
    0.0630    1.3320    1.3320 O   0  0  0  0  0
    1.1940   -0.0350    0.0010 N   0  0  0  0  0
    2.3960    0.0790    0.8300 C   0  0  0  0  0
    3.5150   -0.7740    0.2280 C   0  0  0  0  0
    4.0040   -2.4950   -1.9980 O   0  0  0  0  0
    3.0720   -2.2100    0.1780 C   0  0  0  0  0
    3.3370   -2.9960   -0.9310 C   0  0  0  0  0
    2.9160   -4.3210   -0.9550 C   0  0  0  0  0
    2.2360   -4.8510    0.1220 C   0  0  0  0  0
    1.9730   -4.0640    1.2290 C   0  0  0  0  0
    2.3900   -2.7470    1.2560 C   0  0  0  0  0
    4.0630   -1.1560   -2.1950 C   0  0  0  0  0
    3.8320   -0.2710   -1.1540 C   0  0  0  0  0
    3.8950    1.0920   -1.3830 C   0  0  0  0  0
    4.1860    1.5740   -2.6450 C   0  0  0  0  0
    4.4170    0.6920   -3.6850 C   0  0  0  0  0
    4.3560   -0.6680   -3.4630 C   0  0  0  0  0
    4.7640   -0.6600    1.1050 C   0  0  0  0  0
    5.2110    0.8010    1.1690 C   0  0  0  0  0
    6.4600    0.9140    2.0450 C   0  0  0  0  0
    6.9070    2.3760    2.1090 C   0  0  0  0  0
    8.0740    2.4820    2.9280 O   0  0  0  0  0
    8.5760    3.8130    3.0550 C   0  0  0  0  0
   -4.0120    1.6960   -2.8720 H   0  0  0  0  0
   -2.7980    2.7980   -2.1790 H   0  0  0  0  0
   -3.8700    0.2620   -0.8600 H   0  0  0  0  0
   -1.9500    2.4050    0.1650 H   0  0  0  0  0
   -2.5330    0.9940    1.0810 H   0  0  0  0  0
   -1.4790   -0.5260   -0.5520 H   0  0  0  0  0
   -0.5240    2.0490   -1.8870 H   0  0  0  0  0
   -0.0680    0.3960   -2.3650 H   0  0  0  0  0
   -2.3700   -0.0420   -2.8400 H   0  0  0  0  0
   -4.3420    2.9830    0.1650 H   0  0  0  0  0
   -6.8830    1.2870    2.3190 H   0  0  0  0  0
   -7.1830   -0.7630    3.6490 H   0  0  0  0  0
   -6.2030   -3.1220    0.2340 H   0  0  0  0  0
   -5.9120   -1.0720   -1.0990 H   0  0  0  0  0
   -7.9320   -3.6530    2.7670 H   0  0  0  0  0
   -6.2390   -4.1040    2.4530 H   0  0  0  0  0
   -6.6480   -3.1200    3.8790 H   0  0  0  0  0
    1.2040   -0.5930   -0.7930 H   0  0  0  0  0
    2.7140    1.1210    0.8680 H   0  0  0  0  0
    2.1760   -0.2700    1.8390 H   0  0  0  0  0
    3.1200   -4.9360   -1.8190 H   0  0  0  0  0
    1.9090   -5.8800    0.1020 H   0  0  0  0  0
    1.4410   -4.4790    2.0720 H   0  0  0  0  0
    2.1830   -2.1350    2.1210 H   0  0  0  0  0
    3.7140    1.7830   -0.5720 H   0  0  0  0  0
    4.2320    2.6380   -2.8190 H   0  0  0  0  0
    4.6450    1.0690   -4.6710 H   0  0  0  0  0
    4.5360   -1.3560   -4.2760 H   0  0  0  0  0
    4.5350   -1.0150    2.1100 H   0  0  0  0  0
    5.5630   -1.2670    0.6780 H   0  0  0  0  0
    5.4390    1.1560    0.1630 H   0  0  0  0  0
    4.4120    1.4080    1.5950 H   0  0  0  0  0
    6.2310    0.5600    3.0500 H   0  0  0  0  0
    7.2590    0.3080    1.6190 H   0  0  0  0  0
    7.1360    2.7300    1.1040 H   0  0  0  0  0
    6.1080    2.9830    2.5350 H   0  0  0  0  0
    9.4610    3.8090    3.6910 H   0  0  0  0  0
    8.8390    4.1980    2.0690 H   0  0  0  0  0
    7.8120    4.4500    3.5000 H   0  0  0  0  0
  1 42  1  0  0  0
  1 43  1  0  0  0
  2  1  1  0  0  0
  2  7  1  0  0  0
  2  3  1  0  0  0
  2 44  1  0  0  0
  3 45  1  0  0  0
  3 46  1  0  0  0
  4  3  1  0  0  0
  4  8  1  0  0  0
  4 47  1  0  0  0
  5  4  1  0  0  0
  5 48  1  0  0  0
  5 49  1  0  0  0
  6  1  1  0  0  0
  6  5  1  0  0  0
  6 50  1  0  0  0
  7 51  1  0  0  0
  8 19  2  0  0  0
  9  7  1  0  0  0
  9 10  1  0  0  0
 10 13  1  0  0  0
 11  9  2  0  0  0
 12  9  2  0  0  0
 13 14  2  0  0  0
 13 52  1  0  0  0
 14 53  1  0  0  0
 15 14  1  0  0  0
 15 18  1  0  0  0
 16 15  2  0  0  0
 16 54  1  0  0  0
 17 10  2  0  0  0
 17 16  1  0  0  0
 17 55  1  0  0  0
 18 56  1  0  0  0
 18 57  1  0  0  0
 18 58  1  0  0  0
 20  8  1  0  0  0
 20 21  1  0  0  0
 20 59  1  0  0  0
 21 22  1  0  0  0
 21 60  1  0  0  0
 21 61  1  0  0  0
 22 24  1  0  0  0
 22 31  1  0  0  0
 24 25  2  0  0  0
 25 26  1  0  0  0
 25 23  1  0  0  0
 26 62  1  0  0  0
 27 26  2  0  0  0
 27 63  1  0  0  0
 28 27  1  0  0  0
 28 64  1  0  0  0
 29 28  2  0  0  0
 29 24  1  0  0  0
 29 65  1  0  0  0
 30 23  1  0  0  0
 30 35  2  0  0  0
 31 30  1  0  0  0
 32 31  2  0  0  0
 32 33  1  0  0  0
 32 66  1  0  0  0
 33 34  2  0  0  0
 33 67  1  0  0  0
 34 35  1  0  0  0
 34 68  1  0  0  0
 35 69  1  0  0  0
 36 37  1  0  0  0
 36 22  1  0  0  0
 36 70  1  0  0  0
 36 71  1  0  0  0
 37 72  1  0  0  0
 37 73  1  0  0  0
 38 37  1  0  0  0
 38 74  1  0  0  0
 38 75  1  0  0  0
 39 38  1  0  0  0
 39 76  1  0  0  0
 39 77  1  0  0  0
 40 39  1  0  0  0
 41 40  1  0  0  0
 41 78  1  0  0  0
 41 79  1  0  0  0
 41 80  1  0  0  0
M  END
$$$$
