1IG
  CCTOOLS-0919241034

 55 57  0  0  0  0  0  0  0  0999 V2000
    3.1660   -0.3270   -1.3430 C   0  0  0  0  0
    4.4500   -0.0040   -1.2390 N   0  0  0  0  0
    5.1360   -0.2980   -0.1440 C   0  0  0  0  0
    4.5800   -0.9200    0.8850 N   0  0  0  0  0
    3.3050   -1.2760    0.8610 C   0  0  0  0  0
    2.5440   -0.9930   -0.2700 C   0  0  0  0  0
    2.4540   -0.0180   -2.4880 N   0  0  0  0  0
    6.4720    0.0550   -0.0740 N   0  0  0  0  0
    2.6880   -1.9830    2.0400 C   0  0  0  0  0
    2.1120   -0.9500    3.0110 C   0  0  0  0  0
    0.7500   -2.7210   -0.3420 C   0  0  0  0  0
   -0.5820   -3.0730   -0.4050 C   0  0  0  0  0
   -1.5630   -2.0910   -0.4670 C   0  0  0  0  0
   -1.2100   -0.7420   -0.4660 C   0  0  0  0  0
    0.1310   -0.3880   -0.3960 C   0  0  0  0  0
    1.1130   -1.3750   -0.3390 C   0  0  0  0  0
   -3.2610   -2.5570   -0.5470 S   0  0  0  0  0
   -3.9960   -1.1760    0.3720 C   0  0  0  0  0
   -3.4420    0.1210   -0.1450 C   0  0  0  0  0
   -2.1730    0.2640   -0.5300 N   0  0  0  0  0
   -1.7640    1.5690   -1.0560 C   0  0  0  0  0
   -1.2650    2.4480    0.0930 C   0  0  0  0  0
   -0.8550    3.7530   -0.4330 N   0  0  0  0  0
   -0.3790    4.6970    0.4030 C   0  0  0  0  0
    0.0430    6.0390   -0.1380 C   0  0  0  0  0
   -5.5150   -1.1920    0.1880 C   0  0  0  0  0
   -3.6610   -1.3170    1.8590 C   0  0  0  0  0
   -4.1810    1.0800   -0.2150 O   0  0  0  0  0
   -0.2890    4.4660    1.5900 O   0  0  0  0  0
    2.8920    0.4370   -3.2240 H   0  0  0  0  0
    1.5160   -0.2580   -2.5550 H   0  0  0  0  0
    6.9870   -0.1530    0.7210 H   0  0  0  0  0
    6.8930    0.5110   -0.8190 H   0  0  0  0  0
    3.4490   -2.5750    2.5480 H   0  0  0  0  0
    1.8890   -2.6390    1.6920 H   0  0  0  0  0
    1.3510   -0.3580    2.5020 H   0  0  0  0  0
    1.6660   -1.4620    3.8630 H   0  0  0  0  0
    2.9110   -0.2940    3.3580 H   0  0  0  0  0
    1.5100   -3.4860   -0.2940 H   0  0  0  0  0
   -0.8640   -4.1160   -0.4070 H   0  0  0  0  0
    0.4140    0.6540   -0.3880 H   0  0  0  0  0
   -0.9630    1.4320   -1.7820 H   0  0  0  0  0
   -2.6140    2.0500   -1.5380 H   0  0  0  0  0
   -2.0660    2.5850    0.8200 H   0  0  0  0  0
   -0.4140    1.9670    0.5760 H   0  0  0  0  0
   -0.9270    3.9370   -1.3820 H   0  0  0  0  0
   -0.8080    6.5190   -0.6210 H   0  0  0  0  0
    0.3980    6.6650    0.6800 H   0  0  0  0  0
    0.8430    5.9020   -0.8650 H   0  0  0  0  0
   -5.9170   -2.1330    0.5640 H   0  0  0  0  0
   -5.9560   -0.3620    0.7400 H   0  0  0  0  0
   -5.7530   -1.0910   -0.8710 H   0  0  0  0  0
   -2.5790   -1.3060    1.9900 H   0  0  0  0  0
   -4.1020   -0.4870    2.4110 H   0  0  0  0  0
   -4.0630   -2.2580    2.2340 H   0  0  0  0  0
  1  2  1  0  0  0
  1  6  2  0  0  0
  1  7  1  0  0  0
  2  3  2  0  0  0
  3  4  1  0  0  0
  3  8  1  0  0  0
  4  5  2  0  0  0
  5  6  1  0  0  0
  5  9  1  0  0  0
  6 16  1  0  0  0
  7 30  1  0  0  0
  7 31  1  0  0  0
  8 32  1  0  0  0
  8 33  1  0  0  0
  9 10  1  0  0  0
  9 34  1  0  0  0
  9 35  1  0  0  0
 10 36  1  0  0  0
 10 37  1  0  0  0
 10 38  1  0  0  0
 11 12  1  0  0  0
 11 16  2  0  0  0
 11 39  1  0  0  0
 12 13  2  0  0  0
 12 40  1  0  0  0
 13 14  1  0  0  0
 13 17  1  0  0  0
 14 15  2  0  0  0
 14 20  1  0  0  0
 15 16  1  0  0  0
 15 41  1  0  0  0
 17 18  1  0  0  0
 18 19  1  0  0  0
 18 26  1  0  0  0
 18 27  1  0  0  0
 19 20  1  0  0  0
 19 28  2  0  0  0
 20 21  1  0  0  0
 21 22  1  0  0  0
 21 42  1  0  0  0
 21 43  1  0  0  0
 22 23  1  0  0  0
 22 44  1  0  0  0
 22 45  1  0  0  0
 23 24  1  0  0  0
 23 46  1  0  0  0
 24 25  1  0  0  0
 24 29  2  0  0  0
 25 47  1  0  0  0
 25 48  1  0  0  0
 25 49  1  0  0  0
 26 50  1  0  0  0
 26 51  1  0  0  0
 26 52  1  0  0  0
 27 53  1  0  0  0
 27 54  1  0  0  0
 27 55  1  0  0  0
M  END
$$$$
