22X
  CCTOOLS-0919241036

 81 83  0  0  1  0  0  0  0  0999 V2000
    2.2570    0.1940    1.1120 C   0  0  0  0  0
    5.4840   -3.3970    0.0440 N   0  0  0  0  0
    2.2470   -0.2140    2.4810 O   0  0  0  0  0
    3.9770    4.3620   -1.4880 CL  0  0  0  0  0
    3.3310    1.2300    0.9040 C   0  0  0  0  0
   -2.5880    0.0900   -3.0320 N   0  0  0  0  0
   -2.1250   -1.2480   -0.6680 O   0  0  0  0  0
    4.4710    1.2100    1.6870 C   0  0  0  0  0
   -3.5380    0.4470   -0.4070 N   0  0  0  0  0
    5.2790   -4.9800   -1.4960 O   0  0  0  0  0
    3.1800    2.1970   -0.0720 C   0  0  0  0  0
   -1.5050    0.3560    0.7380 N   0  0  0  0  0
    5.4570    2.1610    1.4970 C   0  0  0  0  0
    4.1660    3.1480   -0.2620 C   0  0  0  0  0
    5.3040    3.1310    0.5260 C   0  0  0  0  0
    2.5380   -1.0180    0.2210 C   0  0  0  0  0
    3.8990   -1.6140    0.5860 C   0  0  0  0  0
    4.1800   -2.8260   -0.3050 C   0  0  0  0  0
    5.9430   -4.4790   -0.6140 C   0  0  0  0  0
    7.2840   -5.0670   -0.2550 C   0  0  0  0  0
   -4.4360   -0.0840   -1.4360 C   0  0  0  0  0
   -3.9990    0.4300   -2.8090 C   0  0  0  0  0
   -5.8670    0.3780   -1.1500 C   0  0  0  0  0
   -6.3490   -0.2380    0.1650 C   0  0  0  0  0
   -7.7300    0.3200    0.5140 C   0  0  0  0  0
   -8.2120   -0.2950    1.8290 C   0  0  0  0  0
   -8.2990   -1.8150    1.6780 C   0  0  0  0  0
   -6.4360   -1.7580    0.0140 C   0  0  0  0  0
   -6.9180   -2.3740    1.3290 C   0  0  0  0  0
   -2.3800   -0.1870   -0.1320 C   0  0  0  0  0
   -0.7320    2.6140    1.2470 C   0  0  0  0  0
    0.6150    1.9990    1.6350 C   0  0  0  0  0
    0.8960    0.7900    0.7470 C   0  0  0  0  0
   -0.1930   -0.2650    0.9650 C   0  0  0  0  0
   -1.8430    1.5830    1.4720 C   0  0  0  0  0
   -2.1320    0.5680   -4.3440 C   0  0  0  0  0
    6.0150   -2.9960    0.7500 H   0  0  0  0  0
    1.5780   -0.8810    2.6880 H   0  0  0  0  0
   -2.0060    0.4540   -2.2920 H   0  0  0  0  0
    4.5910    0.4520    2.4470 H   0  0  0  0  0
   -3.7760    1.2530    0.0760 H   0  0  0  0  0
    2.2920    2.2090   -0.6860 H   0  0  0  0  0
    6.3470    2.1450    2.1090 H   0  0  0  0  0
    6.0740    3.8740    0.3780 H   0  0  0  0  0
    1.7610   -1.7670    0.3710 H   0  0  0  0  0
    2.5460   -0.7070   -0.8240 H   0  0  0  0  0
    4.6760   -0.8650    0.4360 H   0  0  0  0  0
    3.8910   -1.9250    1.6300 H   0  0  0  0  0
    4.1880   -2.5150   -1.3500 H   0  0  0  0  0
    3.4030   -3.5750   -0.1550 H   0  0  0  0  0
    7.2760   -5.3780    0.7900 H   0  0  0  0  0
    7.4840   -5.9300   -0.8900 H   0  0  0  0  0
    8.0610   -4.3170   -0.4050 H   0  0  0  0  0
   -4.3970   -1.1730   -1.4260 H   0  0  0  0  0
   -4.1220    1.5120   -2.8480 H   0  0  0  0  0
   -4.6110   -0.0340   -3.5820 H   0  0  0  0  0
   -5.8890    1.4650   -1.0720 H   0  0  0  0  0
   -6.5200    0.0590   -1.9620 H   0  0  0  0  0
   -5.6460    0.0080    0.9610 H   0  0  0  0  0
   -7.6670    1.4030    0.6210 H   0  0  0  0  0
   -8.4330    0.0740   -0.2820 H   0  0  0  0  0
   -7.5080   -0.0490    2.6250 H   0  0  0  0  0
   -9.1950    0.1020    2.0780 H   0  0  0  0  0
   -8.6420   -2.2540    2.6150 H   0  0  0  0  0
   -9.0020   -2.0620    0.8820 H   0  0  0  0  0
   -7.1390   -2.0040   -0.7810 H   0  0  0  0  0
   -5.4520   -2.1560   -0.2340 H   0  0  0  0  0
   -6.2150   -2.1280    2.1250 H   0  0  0  0  0
   -6.9810   -3.4570    1.2220 H   0  0  0  0  0
   -0.9230    3.4910    1.8640 H   0  0  0  0  0
   -0.7090    2.9060    0.1970 H   0  0  0  0  0
    1.4040    2.7390    1.5000 H   0  0  0  0  0
    0.5840    1.6890    2.6800 H   0  0  0  0  0
    0.9030    1.1000   -0.2980 H   0  0  0  0  0
   -0.1390   -0.6400    1.9870 H   0  0  0  0  0
   -0.0510   -1.0870    0.2640 H   0  0  0  0  0
   -2.7890    1.9800    1.1040 H   0  0  0  0  0
   -1.9260    1.3620    2.5360 H   0  0  0  0  0
   -2.7310    0.1060   -5.1280 H   0  0  0  0  0
   -2.2420    1.6520   -4.3940 H   0  0  0  0  0
   -1.0840    0.3030   -4.4840 H   0  0  0  0  0
  1  3  1  0  0  0
  1  5  1  0  0  0
  1 16  1  0  0  0
  1 33  1  0  0  0
  2 18  1  0  0  0
  2 19  1  0  0  0
  2 37  1  0  0  0
  3 38  1  0  0  0
  4 14  1  0  0  0
  5  8  2  0  0  0
  5 11  1  0  0  0
  6 22  1  0  0  0
  6 36  1  0  0  0
  6 39  1  0  0  0
  7 30  2  0  0  0
  8 13  1  0  0  0
  8 40  1  0  0  0
  9 21  1  0  0  0
  9 30  1  0  0  0
  9 41  1  0  0  0
 10 19  2  0  0  0
 11 14  2  0  0  0
 11 42  1  0  0  0
 12 30  1  0  0  0
 12 34  1  0  0  0
 12 35  1  0  0  0
 13 15  2  0  0  0
 13 43  1  0  0  0
 14 15  1  0  0  0
 15 44  1  0  0  0
 16 17  1  0  0  0
 16 45  1  0  0  0
 16 46  1  0  0  0
 17 18  1  0  0  0
 17 47  1  0  0  0
 17 48  1  0  0  0
 18 49  1  0  0  0
 18 50  1  0  0  0
 19 20  1  0  0  0
 20 51  1  0  0  0
 20 52  1  0  0  0
 20 53  1  0  0  0
 21 22  1  0  0  0
 21 23  1  0  0  0
 21 54  1  0  0  0
 22 55  1  0  0  0
 22 56  1  0  0  0
 23 24  1  0  0  0
 23 57  1  0  0  0
 23 58  1  0  0  0
 24 25  1  0  0  0
 24 28  1  0  0  0
 24 59  1  0  0  0
 25 26  1  0  0  0
 25 60  1  0  0  0
 25 61  1  0  0  0
 26 27  1  0  0  0
 26 62  1  0  0  0
 26 63  1  0  0  0
 27 29  1  0  0  0
 27 64  1  0  0  0
 27 65  1  0  0  0
 28 29  1  0  0  0
 28 66  1  0  0  0
 28 67  1  0  0  0
 29 68  1  0  0  0
 29 69  1  0  0  0
 31 32  1  0  0  0
 31 35  1  0  0  0
 31 70  1  0  0  0
 31 71  1  0  0  0
 32 33  1  0  0  0
 32 72  1  0  0  0
 32 73  1  0  0  0
 33 34  1  0  0  0
 33 74  1  0  0  0
 34 75  1  0  0  0
 34 76  1  0  0  0
 35 77  1  0  0  0
 35 78  1  0  0  0
 36 79  1  0  0  0
 36 80  1  0  0  0
 36 81  1  0  0  0
M  END
$$$$
