2IG
  CCTOOLS-0919241038

 53 56  0  0  0  0  0  0  0  0999 V2000
    3.0910   -0.9120    1.0290 C   0  0  0  0  0
    4.3240   -1.3980    0.9460 N   0  0  0  0  0
    5.2300   -0.8170    0.1740 C   0  0  0  0  0
    4.9530    0.2620   -0.5440 N   0  0  0  0  0
    3.7480    0.8080   -0.5170 C   0  0  0  0  0
    2.7620    0.2370    0.2840 C   0  0  0  0  0
    2.1470   -1.5210    1.8370 N   0  0  0  0  0
    6.5040   -1.3530    0.1150 N   0  0  0  0  0
    3.4480    2.0350   -1.3390 C   0  0  0  0  0
    2.9420    1.6130   -2.7200 C   0  0  0  0  0
    1.2080    2.0910    0.8870 C   0  0  0  0  0
   -0.0440    2.6330    0.9450 C   0  0  0  0  0
   -1.1390    1.9170    0.4620 C   0  0  0  0  0
   -0.9610    0.6370   -0.0860 C   0  0  0  0  0
    0.3170    0.0950   -0.1470 C   0  0  0  0  0
    1.3990    0.8170    0.3430 C   0  0  0  0  0
   -2.1960    0.1570   -0.4850 N   0  0  0  0  0
   -2.4260   -1.1500   -1.1060 C   0  0  0  0  0
   -2.6990   -2.1900   -0.0180 C   0  0  0  0  0
   -2.9390   -3.5550   -0.6660 C   0  0  0  0  0
   -3.1940   -4.5270    0.3500 O   0  0  0  0  0
   -3.4090   -5.7730   -0.3160 C   0  0  0  0  0
   -4.5580    1.0830   -0.4180 C   0  0  0  0  0
   -3.1820    1.0880   -0.2120 C   0  0  0  0  0
   -2.5810    2.2090    0.3800 C   0  0  0  0  0
   -3.3600    3.3020    0.7560 C   0  0  0  0  0
   -4.7220    3.2770    0.5430 C   0  0  0  0  0
   -5.3170    2.1710   -0.0420 C   0  0  0  0  0
    2.3840   -2.3090    2.3490 H   0  0  0  0  0
    1.2490   -1.1590    1.8900 H   0  0  0  0  0
    7.1790   -0.9390   -0.4450 H   0  0  0  0  0
    6.7230   -2.1420    0.6350 H   0  0  0  0  0
    4.3550    2.6290   -1.4500 H   0  0  0  0  0
    2.6830    2.6290   -0.8390 H   0  0  0  0  0
    3.7070    1.0180   -3.2210 H   0  0  0  0  0
    2.0350    1.0190   -2.6090 H   0  0  0  0  0
    2.7250    2.5000   -3.3150 H   0  0  0  0  0
    2.0530    2.6480    1.2620 H   0  0  0  0  0
   -0.1860    3.6170    1.3660 H   0  0  0  0  0
    0.4680   -0.8890   -0.5670 H   0  0  0  0  0
   -3.2850   -1.0880   -1.7740 H   0  0  0  0  0
   -1.5430   -1.4420   -1.6750 H   0  0  0  0  0
   -1.8400   -2.2520    0.6500 H   0  0  0  0  0
   -3.5810   -1.8980    0.5510 H   0  0  0  0  0
   -3.7980   -3.4940   -1.3340 H   0  0  0  0  0
   -2.0570   -3.8470   -1.2360 H   0  0  0  0  0
   -3.6090   -6.5500    0.4230 H   0  0  0  0  0
   -4.2620   -5.6840   -0.9880 H   0  0  0  0  0
   -2.5210   -6.0370   -0.8890 H   0  0  0  0  0
   -5.0320    0.2250   -0.8730 H   0  0  0  0  0
   -2.8980    4.1650    1.2110 H   0  0  0  0  0
   -5.3270    4.1230    0.8330 H   0  0  0  0  0
   -6.3850    2.1610   -0.2050 H   0  0  0  0  0
  1  2  1  0  0  0
  1  6  2  0  0  0
  1  7  1  0  0  0
  2  3  2  0  0  0
  3  4  1  0  0  0
  3  8  1  0  0  0
  4  5  2  0  0  0
  5  6  1  0  0  0
  5  9  1  0  0  0
  6 16  1  0  0  0
  7 29  1  0  0  0
  7 30  1  0  0  0
  8 31  1  0  0  0
  8 32  1  0  0  0
  9 10  1  0  0  0
  9 33  1  0  0  0
  9 34  1  0  0  0
 10 35  1  0  0  0
 10 36  1  0  0  0
 10 37  1  0  0  0
 11 12  2  0  0  0
 11 16  1  0  0  0
 11 38  1  0  0  0
 12 13  1  0  0  0
 12 39  1  0  0  0
 13 14  2  0  0  0
 13 25  1  0  0  0
 14 15  1  0  0  0
 14 17  1  0  0  0
 15 16  2  0  0  0
 15 40  1  0  0  0
 17 18  1  0  0  0
 17 24  1  0  0  0
 18 19  1  0  0  0
 18 41  1  0  0  0
 18 42  1  0  0  0
 19 20  1  0  0  0
 19 43  1  0  0  0
 19 44  1  0  0  0
 20 21  1  0  0  0
 20 45  1  0  0  0
 20 46  1  0  0  0
 21 22  1  0  0  0
 22 47  1  0  0  0
 22 48  1  0  0  0
 22 49  1  0  0  0
 23 24  2  0  0  0
 23 28  1  0  0  0
 23 50  1  0  0  0
 24 25  1  0  0  0
 25 26  2  0  0  0
 26 27  1  0  0  0
 26 51  1  0  0  0
 27 28  2  0  0  0
 27 52  1  0  0  0
 28 53  1  0  0  0
M  END
$$$$
