2XF
  CCTOOLS-0919241041

 58 60  0  0  1  0  0  0  0  0999 V2000
   -2.8780    0.0610   -0.1740 C   0  0  0  0  0
   -2.4880   -0.4400   -1.5660 C   0  0  0  0  0
   -1.2990    0.2850   -2.0330 N   0  0  0  0  0
   -0.1510    0.0470   -1.1500 C   0  0  0  0  0
   -0.4710    0.5620    0.2550 C   0  0  0  0  0
   -1.7090   -0.1630    0.7900 C   0  0  0  0  0
    0.6990    0.2980    1.1670 C   0  0  0  0  0
    1.8470    0.9860    1.0070 N   0  0  0  0  0
    0.6090   -0.5340    2.0450 O   0  0  0  0  0
   -4.0510   -0.6780    0.3010 N   0  0  0  0  0
    1.9230    2.0620    0.0160 C   0  0  0  0  0
    3.0180    0.6590    1.8240 C   0  0  0  0  0
    1.0790    3.3140    0.2650 C   0  0  0  0  0
    2.5980    3.3680    0.4410 C   0  0  0  0  0
    3.7640   -0.4890    1.1950 C   0  0  0  0  0
    3.5780   -1.7760    1.6650 C   0  0  0  0  0
    4.2620   -2.8300    1.0890 C   0  0  0  0  0
    5.1340   -2.5980    0.0410 C   0  0  0  0  0
    5.3210   -1.3120   -0.4310 C   0  0  0  0  0
    4.6310   -0.2570    0.1430 C   0  0  0  0  0
    4.8600    1.3570   -0.4540 CL  0  0  0  0  0
    6.4160   -1.0200   -1.7460 CL  0  0  0  0  0
   -5.2890   -0.2710   -0.0460 C   0  0  0  0  0
   -5.4310    0.7080   -0.7520 O   0  0  0  0  0
   -6.3670   -0.9490    0.3900 O   0  0  0  0  0
   -7.6680   -0.4540   -0.0230 C   0  0  0  0  0
   -8.7630   -1.3470    0.5650 C   0  0  0  0  0
   -7.8520    0.9780    0.4810 C   0  0  0  0  0
   -7.7600   -0.4740   -1.5500 C   0  0  0  0  0
   -3.1120    1.1240   -0.2210 H   0  0  0  0  0
   -2.2680   -1.5070   -1.5200 H   0  0  0  0  0
   -3.3130   -0.2690   -2.2580 H   0  0  0  0  0
   -1.0780    0.0400   -2.9870 H   0  0  0  0  0
    0.0580   -1.0220   -1.1050 H   0  0  0  0  0
    0.7220    0.5710   -1.5390 H   0  0  0  0  0
   -0.6670    1.6330    0.2140 H   0  0  0  0  0
   -1.9670    0.2310    1.7730 H   0  0  0  0  0
   -1.5010   -1.2300    0.8680 H   0  0  0  0  0
   -3.9380   -1.4590    0.8640 H   0  0  0  0  0
    2.0540    1.7410   -1.0180 H   0  0  0  0  0
    3.6730    1.5280    1.8850 H   0  0  0  0  0
    2.6940    0.3760    2.8260 H   0  0  0  0  0
    0.6550    3.8160   -0.6040 H   0  0  0  0  0
    0.4670    3.3360    1.1660 H   0  0  0  0  0
    2.9850    3.4260    1.4580 H   0  0  0  0  0
    3.1730    3.9060   -0.3120 H   0  0  0  0  0
    2.8970   -1.9580    2.4840 H   0  0  0  0  0
    4.1150   -3.8340    1.4570 H   0  0  0  0  0
    5.6680   -3.4220   -0.4080 H   0  0  0  0  0
   -8.6970   -1.3330    1.6530 H   0  0  0  0  0
   -9.7400   -0.9750    0.2550 H   0  0  0  0  0
   -8.6320   -2.3680    0.2060 H   0  0  0  0  0
   -7.0720    1.6140    0.0620 H   0  0  0  0  0
   -8.8290    1.3500    0.1710 H   0  0  0  0  0
   -7.7870    0.9920    1.5690 H   0  0  0  0  0
   -7.6290   -1.4950   -1.9090 H   0  0  0  0  0
   -8.7370   -0.1020   -1.8600 H   0  0  0  0  0
   -6.9800    0.1620   -1.9690 H   0  0  0  0  0
  1 10  1  0  0  0
  1  6  1  0  0  0
  1 30  1  0  0  0
  2  1  1  0  0  0
  2 31  1  0  0  0
  2 32  1  0  0  0
  3  2  1  0  0  0
  3  4  1  0  0  0
  3 33  1  0  0  0
  4  5  1  0  0  0
  4 34  1  0  0  0
  4 35  1  0  0  0
  5  6  1  0  0  0
  5  7  1  0  0  0
  5 36  1  0  0  0
  6 37  1  0  0  0
  6 38  1  0  0  0
  7  8  1  0  0  0
  8 11  1  0  0  0
  8 12  1  0  0  0
  9  7  2  0  0  0
 10 23  1  0  0  0
 10 39  1  0  0  0
 11 13  1  0  0  0
 11 40  1  0  0  0
 12 41  1  0  0  0
 12 42  1  0  0  0
 13 43  1  0  0  0
 13 44  1  0  0  0
 14 11  1  0  0  0
 14 13  1  0  0  0
 14 45  1  0  0  0
 14 46  1  0  0  0
 15 12  1  0  0  0
 15 20  2  0  0  0
 16 15  1  0  0  0
 16 47  1  0  0  0
 17 16  2  0  0  0
 17 18  1  0  0  0
 17 48  1  0  0  0
 18 19  2  0  0  0
 18 49  1  0  0  0
 19 20  1  0  0  0
 19 22  1  0  0  0
 20 21  1  0  0  0
 23 25  1  0  0  0
 23 24  2  0  0  0
 25 26  1  0  0  0
 26 29  1  0  0  0
 26 27  1  0  0  0
 27 50  1  0  0  0
 27 51  1  0  0  0
 27 52  1  0  0  0
 28 26  1  0  0  0
 28 53  1  0  0  0
 28 54  1  0  0  0
 28 55  1  0  0  0
 29 56  1  0  0  0
 29 57  1  0  0  0
 29 58  1  0  0  0
M  END
$$$$
