2Y9
  CCTOOLS-0919241041

 76 78  0  0  1  0  0  0  0  0999 V2000
    1.1490   -0.1450   -1.1560 C   0  0  0  0  0
    1.1000   -0.7340    0.2550 C   0  0  0  0  0
   -0.3290   -1.1860    0.5660 C   0  0  0  0  0
   -1.2770    0.0080    0.4190 C   0  0  0  0  0
   -1.1590    0.5750   -0.9980 C   0  0  0  0  0
    0.2270    0.9940   -1.2450 N   0  0  0  0  0
    2.0310   -1.9160    0.3400 C   0  0  0  0  0
   -2.6940   -0.4410    0.6650 C   0  0  0  0  0
   -2.9250   -1.6010    0.9310 O   0  0  0  0  0
    3.3650   -1.7270    0.3110 N   0  0  0  0  0
    1.5800   -3.0370    0.4350 O   0  0  0  0  0
   -3.7050    0.4470    0.5890 N   0  0  0  0  0
   -0.7130   -2.2160   -0.3470 O   0  0  0  0  0
    4.2680   -2.8800    0.2970 C   0  0  0  0  0
    3.8850   -0.4330    0.2950 C   0  0  0  0  0
    5.2810   -2.9700   -0.8460 C   0  0  0  0  0
    5.7520   -2.6190    0.5660 C   0  0  0  0  0
    3.7140    0.3920    1.4000 C   0  0  0  0  0
    4.2360    1.6740    1.3700 C   0  0  0  0  0
    4.9140    2.0860    0.2320 C   0  0  0  0  0
    5.0470    1.2130   -0.8300 C   0  0  0  0  0
    4.5430   -0.0050   -0.7710 N   0  0  0  0  0
    5.4990    3.4730    0.1550 C   0  0  0  0  0
    7.0120    3.3780   -0.0510 C   0  0  0  0  0
    4.8710    4.2270   -1.0190 C   0  0  0  0  0
   -5.0830    0.0100    0.8280 C   0  0  0  0  0
   -5.6730   -0.5500   -0.4680 C   0  0  0  0  0
   -4.9110   -1.8150   -0.8690 C   0  0  0  0  0
   -5.1380   -2.9030    0.1830 C   0  0  0  0  0
   -5.4170   -2.3060   -2.2270 C   0  0  0  0  0
   -5.9220    1.2010    1.2960 C   0  0  0  0  0
   -6.0080    2.1660    0.2450 O   0  0  0  0  0
   -6.7740    3.3240    0.5800 C   0  0  0  0  0
   -6.7980    4.2830   -0.6120 C   0  0  0  0  0
    2.1630    0.1910   -1.3750 H   0  0  0  0  0
    0.8550   -0.9070   -1.8780 H   0  0  0  0  0
    1.4070    0.0240    0.9760 H   0  0  0  0  0
   -0.3780   -1.5660    1.5860 H   0  0  0  0  0
   -1.0080    0.7770    1.1430 H   0  0  0  0  0
   -1.4420   -0.1900   -1.7200 H   0  0  0  0  0
   -1.8220    1.4350   -1.1010 H   0  0  0  0  0
    0.3100    1.4580   -2.1370 H   0  0  0  0  0
   -3.5210    1.3750    0.3750 H   0  0  0  0  0
   -1.6100   -2.5510   -0.2080 H   0  0  0  0  0
    3.8460   -3.8130    0.6690 H   0  0  0  0  0
    5.5250   -3.9620   -1.2260 H   0  0  0  0  0
    5.2750   -2.1710   -1.5880 H   0  0  0  0  0
    6.0560   -1.5890    0.7540 H   0  0  0  0  0
    6.3050   -3.3800    1.1160 H   0  0  0  0  0
    3.1800    0.0380    2.2690 H   0  0  0  0  0
    4.1180    2.3380    2.2140 H   0  0  0  0  0
    5.5740    1.5300   -1.7180 H   0  0  0  0  0
    5.2910    4.0070    1.0820 H   0  0  0  0  0
    7.2200    2.8440   -0.9790 H   0  0  0  0  0
    7.4350    4.3810   -0.1070 H   0  0  0  0  0
    7.4590    2.8410    0.7850 H   0  0  0  0  0
    3.7930    4.2950   -0.8730 H   0  0  0  0  0
    5.2940    5.2300   -1.0750 H   0  0  0  0  0
    5.0780    3.6930   -1.9470 H   0  0  0  0  0
   -5.0910   -0.7640    1.5950 H   0  0  0  0  0
   -6.7240   -0.7930   -0.3140 H   0  0  0  0  0
   -5.5840    0.1940   -1.2600 H   0  0  0  0  0
   -3.8460   -1.5920   -0.9370 H   0  0  0  0  0
   -4.5960   -3.8040   -0.1030 H   0  0  0  0  0
   -4.7780   -2.5530    1.1500 H   0  0  0  0  0
   -6.2030   -3.1260    0.2500 H   0  0  0  0  0
   -6.4810   -2.5290   -2.1600 H   0  0  0  0  0
   -5.2550   -1.5310   -2.9770 H   0  0  0  0  0
   -4.8740   -3.2070   -2.5130 H   0  0  0  0  0
   -6.9230    0.8600    1.5590 H   0  0  0  0  0
   -5.4520    1.6560    2.1680 H   0  0  0  0  0
   -7.7930    3.0270    0.8280 H   0  0  0  0  0
   -6.3220    3.8230    1.4380 H   0  0  0  0  0
   -5.7790    4.5800   -0.8600 H   0  0  0  0  0
   -7.2500    3.7840   -1.4700 H   0  0  0  0  0
   -7.3820    5.1670   -0.3560 H   0  0  0  0  0
  1  2  1  0  0  0
  1 35  1  0  0  0
  1 36  1  0  0  0
  2  3  1  0  0  0
  2  7  1  0  0  0
  2 37  1  0  0  0
  3 38  1  0  0  0
  4  8  1  0  0  0
  4  3  1  0  0  0
  4 39  1  0  0  0
  5  4  1  0  0  0
  5 40  1  0  0  0
  5 41  1  0  0  0
  6  5  1  0  0  0
  6  1  1  0  0  0
  6 42  1  0  0  0
  7 10  1  0  0  0
  8  9  2  0  0  0
 10 14  1  0  0  0
 10 15  1  0  0  0
 11  7  2  0  0  0
 12  8  1  0  0  0
 12 26  1  0  0  0
 12 43  1  0  0  0
 13  3  1  0  0  0
 13 44  1  0  0  0
 14 16  1  0  0  0
 14 17  1  0  0  0
 14 45  1  0  0  0
 15 22  1  0  0  0
 16 17  1  0  0  0
 16 46  1  0  0  0
 16 47  1  0  0  0
 17 48  1  0  0  0
 17 49  1  0  0  0
 18 15  2  0  0  0
 18 19  1  0  0  0
 18 50  1  0  0  0
 19 20  2  0  0  0
 19 51  1  0  0  0
 20 21  1  0  0  0
 20 23  1  0  0  0
 21 52  1  0  0  0
 22 21  2  0  0  0
 23 24  1  0  0  0
 23 53  1  0  0  0
 24 54  1  0  0  0
 24 55  1  0  0  0
 24 56  1  0  0  0
 25 23  1  0  0  0
 25 57  1  0  0  0
 25 58  1  0  0  0
 25 59  1  0  0  0
 26 31  1  0  0  0
 26 60  1  0  0  0
 27 26  1  0  0  0
 27 61  1  0  0  0
 27 62  1  0  0  0
 28 29  1  0  0  0
 28 27  1  0  0  0
 28 63  1  0  0  0
 29 64  1  0  0  0
 29 65  1  0  0  0
 29 66  1  0  0  0
 30 28  1  0  0  0
 30 67  1  0  0  0
 30 68  1  0  0  0
 30 69  1  0  0  0
 31 32  1  0  0  0
 31 70  1  0  0  0
 31 71  1  0  0  0
 32 33  1  0  0  0
 33 34  1  0  0  0
 33 72  1  0  0  0
 33 73  1  0  0  0
 34 74  1  0  0  0
 34 75  1  0  0  0
 34 76  1  0  0  0
M  END
$$$$
