3IG
  CCTOOLS-0919241044

 55 57  0  0  0  0  0  0  0  0999 V2000
   -3.1220   -0.0430    1.3740 C   0  0  0  0  0
   -4.3550    0.4400    1.2760 N   0  0  0  0  0
   -5.0550    0.2910    0.1620 C   0  0  0  0  0
   -4.5640   -0.3400   -0.8950 N   0  0  0  0  0
   -3.3430   -0.8510   -0.8790 C   0  0  0  0  0
   -2.5700   -0.7240    0.2730 C   0  0  0  0  0
   -2.3950    0.1150    2.5400 N   0  0  0  0  0
   -6.3370    0.8080    0.0990 N   0  0  0  0  0
   -2.7990   -1.5660   -2.0890 C   0  0  0  0  0
   -2.0870   -0.5610   -2.9970 C   0  0  0  0  0
   -0.9990   -2.6600    0.2670 C   0  0  0  0  0
    0.2770   -3.1820    0.3280 C   0  0  0  0  0
    1.3730   -2.3380    0.4530 C   0  0  0  0  0
    1.1750   -0.9600    0.5120 C   0  0  0  0  0
   -0.1000   -0.4300    0.4500 C   0  0  0  0  0
   -1.1980   -1.2820    0.3330 C   0  0  0  0  0
    2.6190   -2.8660    0.5250 O   0  0  0  0  0
    3.5180   -2.0630   -0.2300 C   0  0  0  0  0
    3.4890   -0.6370    0.2610 C   0  0  0  0  0
    2.2920   -0.1130    0.6260 N   0  0  0  0  0
    2.1700    1.2630    1.1140 C   0  0  0  0  0
    1.9160    2.2020   -0.0670 C   0  0  0  0  0
    1.7940    3.5780    0.4210 N   0  0  0  0  0
    1.5670    4.5830   -0.4470 C   0  0  0  0  0
    1.4420    5.9990    0.0550 C   0  0  0  0  0
    4.9360   -2.6190   -0.0860 C   0  0  0  0  0
    3.1090   -2.0960   -1.7040 C   0  0  0  0  0
    4.5050    0.0210    0.3260 O   0  0  0  0  0
    1.4650    4.3490   -1.6330 O   0  0  0  0  0
   -2.7850    0.5820    3.2950 H   0  0  0  0  0
   -1.4950   -0.2410    2.6020 H   0  0  0  0  0
   -6.8620    0.7060   -0.7100 H   0  0  0  0  0
   -6.7110    1.2720    0.8640 H   0  0  0  0  0
   -3.6190   -2.0320   -2.6350 H   0  0  0  0  0
   -2.0920   -2.3320   -1.7710 H   0  0  0  0  0
   -1.6930   -1.0780   -3.8720 H   0  0  0  0  0
   -2.7930    0.2060   -3.3150 H   0  0  0  0  0
   -1.2670   -0.0950   -2.4510 H   0  0  0  0  0
   -1.8470   -3.3220    0.1690 H   0  0  0  0  0
    0.4230   -4.2510    0.2780 H   0  0  0  0  0
   -0.2460    0.6390    0.4970 H   0  0  0  0  0
    1.3370    1.3270    1.8150 H   0  0  0  0  0
    3.0920    1.5530    1.6180 H   0  0  0  0  0
    2.7490    2.1380   -0.7670 H   0  0  0  0  0
    0.9940    1.9120   -0.5710 H   0  0  0  0  0
    1.8760    3.7650    1.3690 H   0  0  0  0  0
    2.3640    6.2890    0.5590 H   0  0  0  0  0
    1.2610    6.6680   -0.7860 H   0  0  0  0  0
    0.6090    6.0630    0.7560 H   0  0  0  0  0
    4.9640   -3.6440   -0.4560 H   0  0  0  0  0
    5.6270   -2.0050   -0.6630 H   0  0  0  0  0
    5.2270   -2.6040    0.9640 H   0  0  0  0  0
    2.0960   -1.7070   -1.8080 H   0  0  0  0  0
    3.7960   -1.4810   -2.2850 H   0  0  0  0  0
    3.1430   -3.1220   -2.0680 H   0  0  0  0  0
  1  2  1  0  0  0
  1  6  2  0  0  0
  1  7  1  0  0  0
  2  3  2  0  0  0
  3  4  1  0  0  0
  3  8  1  0  0  0
  4  5  2  0  0  0
  5  6  1  0  0  0
  5  9  1  0  0  0
  6 16  1  0  0  0
  7 30  1  0  0  0
  7 31  1  0  0  0
  8 32  1  0  0  0
  8 33  1  0  0  0
  9 10  1  0  0  0
  9 34  1  0  0  0
  9 35  1  0  0  0
 10 36  1  0  0  0
 10 37  1  0  0  0
 10 38  1  0  0  0
 11 12  2  0  0  0
 11 16  1  0  0  0
 11 39  1  0  0  0
 12 13  1  0  0  0
 12 40  1  0  0  0
 13 14  2  0  0  0
 13 17  1  0  0  0
 14 15  1  0  0  0
 14 20  1  0  0  0
 15 16  2  0  0  0
 15 41  1  0  0  0
 17 18  1  0  0  0
 18 19  1  0  0  0
 18 26  1  0  0  0
 18 27  1  0  0  0
 19 20  1  0  0  0
 19 28  2  0  0  0
 20 21  1  0  0  0
 21 22  1  0  0  0
 21 42  1  0  0  0
 21 43  1  0  0  0
 22 23  1  0  0  0
 22 44  1  0  0  0
 22 45  1  0  0  0
 23 24  1  0  0  0
 23 46  1  0  0  0
 24 25  1  0  0  0
 24 29  2  0  0  0
 25 47  1  0  0  0
 25 48  1  0  0  0
 25 49  1  0  0  0
 26 50  1  0  0  0
 26 51  1  0  0  0
 26 52  1  0  0  0
 27 53  1  0  0  0
 27 54  1  0  0  0
 27 55  1  0  0  0
M  END
$$$$
