3LG
  CCTOOLS-0919241044

 77 81  0  0  1  0  0  0  0  0999 V2000
    9.1490    0.4720   -2.9980 C   0  0  0  0  0
    7.9730    0.0500   -2.3030 O   0  0  0  0  0
    8.3590   -0.2730   -1.0400 C   0  0  0  0  0
    7.4200   -0.7170   -0.1200 C   0  0  0  0  0
    5.9740   -0.8480   -0.5210 C   0  0  0  0  0
    5.2140   -1.3330    0.5880 O   0  0  0  0  0
    9.6900   -0.1550   -0.6680 C   0  0  0  0  0
   10.0790   -0.4840    0.6160 C   0  0  0  0  0
    9.1430   -0.9320    1.5300 C   0  0  0  0  0
    7.8160   -1.0520    1.1610 C   0  0  0  0  0
   -5.4620   -1.9430    0.4880 C   0  0  0  0  0
   -6.6730   -1.9170   -0.4460 C   0  0  0  0  0
   -7.1110   -3.2980   -0.6970 N   0  0  0  0  0
   -6.1080   -3.8990   -1.5830 C   0  0  0  0  0
   -4.7330   -3.7520   -0.9960 C   0  0  0  0  0
   -4.4490   -2.8510   -0.0470 N   0  0  0  0  0
   -3.8490   -4.4830   -1.3910 O   0  0  0  0  0
   -4.8750   -0.5340    0.5990 C   0  0  0  0  0
   -4.5590   -0.0450   -0.7060 O   0  0  0  0  0
   -2.8660   -3.1390    1.7550 C   0  0  0  0  0
   -3.1390   -2.7730    0.4440 C   0  0  0  0  0
   -2.1130   -2.3300   -0.3800 C   0  0  0  0  0
   -0.8230   -2.2490    0.1060 C   0  0  0  0  0
   -0.5500   -2.6200    1.4140 C   0  0  0  0  0
   -1.5740   -3.0620    2.2390 C   0  0  0  0  0
    0.7210   -2.5440    1.8910 O   0  0  0  0  0
    1.5350   -2.0610    0.8200 C   0  0  0  0  0
    2.9870   -1.9520    1.2930 C   0  0  0  0  0
    3.8580   -1.4350    0.1470 C   0  0  0  0  0
   -2.4500    5.0130   -0.3200 N   0  0  0  0  0
   -2.9940    3.7530   -0.1820 C   0  0  0  0  0
   -3.1160    3.2110   -1.4750 C   0  0  0  0  0
   -2.6070    4.2330   -2.3930 C   0  0  0  0  0
   -2.2260    5.2800   -1.6430 C   0  0  0  0  0
   -3.4030    3.0050    0.9160 C   0  0  0  0  0
   -3.9230    1.7420    0.7340 C   0  0  0  0  0
   -4.0440    1.2030   -0.5440 C   0  0  0  0  0
   -3.6390    1.9280   -1.6470 C   0  0  0  0  0
   -2.1550    5.9280    0.7850 C   0  0  0  0  0
   -0.7960    5.6080    1.3530 C   0  0  0  0  0
   -0.3130    6.3230    2.3810 O   0  0  0  0  0
   -0.1410    4.7080    0.8820 O   0  0  0  0  0
    9.5800    1.3360   -2.4910 H   0  0  0  0  0
    9.8740   -0.3410   -3.0110 H   0  0  0  0  0
    8.8880    0.7430   -4.0210 H   0  0  0  0  0
    5.5910    0.1270   -0.8250 H   0  0  0  0  0
    5.8890   -1.5470   -1.3530 H   0  0  0  0  0
   10.4220    0.1950   -1.3810 H   0  0  0  0  0
   11.1150   -0.3920    0.9060 H   0  0  0  0  0
    9.4490   -1.1890    2.5330 H   0  0  0  0  0
    7.0860   -1.4020    1.8770 H   0  0  0  0  0
   -5.7720   -2.2860    1.4750 H   0  0  0  0  0
   -7.4830   -1.3570    0.0220 H   0  0  0  0  0
   -6.3970   -1.4450   -1.3890 H   0  0  0  0  0
   -7.9680   -3.2390   -1.2270 H   0  0  0  0  0
   -6.3340   -4.9570   -1.7180 H   0  0  0  0  0
   -6.1370   -3.4000   -2.5520 H   0  0  0  0  0
   -5.6040    0.1270    1.0680 H   0  0  0  0  0
   -3.9690   -0.5650    1.2050 H   0  0  0  0  0
   -3.6630   -3.4850    2.3970 H   0  0  0  0  0
   -2.3250   -2.0450   -1.4000 H   0  0  0  0  0
   -0.0260   -1.9030   -0.5350 H   0  0  0  0  0
   -1.3620   -3.3470    3.2580 H   0  0  0  0  0
    1.1800   -1.0790    0.5080 H   0  0  0  0  0
    1.4780   -2.7520   -0.0200 H   0  0  0  0  0
    3.3420   -2.9340    1.6050 H   0  0  0  0  0
    3.0440   -1.2610    2.1330 H   0  0  0  0  0
    3.5030   -0.4530   -0.1660 H   0  0  0  0  0
    3.8010   -2.1260   -0.6940 H   0  0  0  0  0
   -2.5480    4.1580   -3.4680 H   0  0  0  0  0
   -1.8060    6.1970   -2.0280 H   0  0  0  0  0
   -3.3140    3.4140    1.9110 H   0  0  0  0  0
   -4.2390    1.1660    1.5900 H   0  0  0  0  0
   -3.7280    1.5060   -2.6370 H   0  0  0  0  0
   -2.1630    6.9540    0.4190 H   0  0  0  0  0
   -2.9100    5.8140    1.5630 H   0  0  0  0  0
    0.0000    0.0000    0.0000 H   0  0  0  0  0
  1  2  1  0  0  0
  1 43  1  0  0  0
  1 44  1  0  0  0
  1 45  1  0  0  0
  2  3  1  0  0  0
  3  4  2  0  0  0
  3  7  1  0  0  0
  4  5  1  0  0  0
  4 10  1  0  0  0
  5  6  1  0  0  0
  5 46  1  0  0  0
  5 47  1  0  0  0
  6 29  1  0  0  0
  7  8  2  0  0  0
  7 48  1  0  0  0
  8  9  1  0  0  0
  8 49  1  0  0  0
  9 10  2  0  0  0
  9 50  1  0  0  0
 10 51  1  0  0  0
 11 12  1  0  0  0
 11 16  1  0  0  0
 11 18  1  0  0  0
 11 52  1  0  0  0
 12 13  1  0  0  0
 12 53  1  0  0  0
 12 54  1  0  0  0
 13 14  1  0  0  0
 13 55  1  0  0  0
 14 15  1  0  0  0
 14 56  1  0  0  0
 14 57  1  0  0  0
 15 16  1  0  0  0
 15 17  2  0  0  0
 16 21  1  0  0  0
 18 19  1  0  0  0
 18 58  1  0  0  0
 18 59  1  0  0  0
 19 37  1  0  0  0
 20 21  1  0  0  0
 20 25  2  0  0  0
 20 60  1  0  0  0
 21 22  2  0  0  0
 22 23  1  0  0  0
 22 61  1  0  0  0
 23 24  2  0  0  0
 23 62  1  0  0  0
 24 25  1  0  0  0
 24 26  1  0  0  0
 25 63  1  0  0  0
 26 27  1  0  0  0
 27 28  1  0  0  0
 27 64  1  0  0  0
 27 65  1  0  0  0
 28 29  1  0  0  0
 28 66  1  0  0  0
 28 67  1  0  0  0
 29 68  1  0  0  0
 29 69  1  0  0  0
 30 31  1  0  0  0
 30 34  1  0  0  0
 30 39  1  0  0  0
 31 32  1  0  0  0
 31 35  2  0  0  0
 32 33  1  0  0  0
 32 38  2  0  0  0
 33 34  2  0  0  0
 33 70  1  0  0  0
 34 71  1  0  0  0
 35 36  1  0  0  0
 35 72  1  0  0  0
 36 37  2  0  0  0
 36 73  1  0  0  0
 37 38  1  0  0  0
 38 74  1  0  0  0
 39 40  1  0  0  0
 39 75  1  0  0  0
 39 76  1  0  0  0
 40 41  2  0  0  0
 40 42  1  0  0  0
 42 77  1  0  0  0
M  END
$$$$
