3ZJ
  CCTOOLS-0919241028

 76 78  0  0  1  0  0  0  0  0999 V2000
    2.2440    2.2650    0.1560 C   0  0  0  0  0
   -0.0820    1.6360   -0.2090 C   0  0  0  0  0
   -5.3090   -0.4050    0.2740 C   0  0  0  0  0
    2.9580   -1.6520    1.6430 C   0  0  0  0  0
    1.5600    0.2910    1.5100 C   0  0  0  0  0
    0.7510    3.9760   -0.7260 C   0  0  0  0  0
    1.7950   -0.9800    1.9900 C   0  0  0  0  0
   -1.0080    2.6770    1.8900 C   0  0  0  0  0
   -3.0860    1.5480    1.9220 C   0  0  0  0  0
   -6.1420   -1.5880   -0.1470 C   0  0  0  0  0
    7.1710   -1.9120   -0.6420 C   0  0  0  0  0
    5.9560   -1.0190   -0.3800 C   0  0  0  0  0
    8.1530   -1.1800   -1.5590 C   0  0  0  0  0
   -0.0810    3.9180   -2.0090 C   0  0  0  0  0
   -0.0150    4.7570    0.3430 C   0  0  0  0  0
   -5.6480   -2.8700    0.0080 C   0  0  0  0  0
   -7.4020   -1.3920   -0.6810 C   0  0  0  0  0
    2.1850   -3.4650    2.9710 C   0  0  0  0  0
    1.0070    2.6150   -0.2480 N   0  0  0  0  0
   -1.3150    2.2700    0.4370 C   0  0  0  0  0
   -3.4380    1.4340   -0.5310 N   0  0  0  0  0
    2.4940    0.9040    0.6720 C   0  0  0  0  0
   -2.4590    1.2340    0.5400 C   0  0  0  0  0
    3.6680    0.2290    0.3260 C   0  0  0  0  0
    3.8970   -1.0440    0.8110 C   0  0  0  0  0
   -1.9080    1.8890    2.7600 N   0  0  0  0  0
    3.1550    3.0670    0.0920 O   0  0  0  0  0
    5.0390   -1.7030    0.4760 O   0  0  0  0  0
    3.1860   -2.9040    2.1190 O   0  0  0  0  0
    9.2870   -2.0140   -1.8040 O   0  0  0  0  0
   10.2710   -1.4210   -2.6540 C   0  0  0  0  0
   -6.4120   -3.9560   -0.3780 C   0  0  0  0  0
   -8.1660   -2.4780   -1.0660 C   0  0  0  0  0
   -7.6690   -3.7600   -0.9180 C   0  0  0  0  0
   -4.2910    0.1450   -1.1240 S   0  0  0  0  0
   -3.2970   -0.8240   -1.4280 O   0  0  0  0  0
   -5.1060    0.7040   -2.1450 O   0  0  0  0  0
   -0.3240    1.3210   -1.2240 H   0  0  0  0  0
    0.2300    0.7700    0.3750 H   0  0  0  0  0
   -5.9650    0.4080    0.5870 H   0  0  0  0  0
   -4.6630   -0.6910    1.1030 H   0  0  0  0  0
    0.6540    0.8120    1.7810 H   0  0  0  0  0
    1.6990    4.4740   -0.9300 H   0  0  0  0  0
    1.0720   -1.4530    2.6380 H   0  0  0  0  0
    0.0310    2.4490    2.1280 H   0  0  0  0  0
   -1.1950    3.7420    2.0250 H   0  0  0  0  0
   -3.7670    2.3960    1.8520 H   0  0  0  0  0
   -3.6020    0.6730    2.3170 H   0  0  0  0  0
    7.6610   -2.1460    0.3030 H   0  0  0  0  0
    6.8460   -2.8360   -1.1220 H   0  0  0  0  0
    6.2810   -0.0960    0.1000 H   0  0  0  0  0
    5.4660   -0.7850   -1.3240 H   0  0  0  0  0
    7.6630   -0.9460   -2.5040 H   0  0  0  0  0
    8.4780   -0.2570   -1.0790 H   0  0  0  0  0
   -0.2710    4.9300   -2.3650 H   0  0  0  0  0
    0.4650    3.3620   -2.7710 H   0  0  0  0  0
   -1.0290    3.4200   -1.8050 H   0  0  0  0  0
   -0.9630    4.2590    0.5480 H   0  0  0  0  0
    0.5780    4.7990    1.2570 H   0  0  0  0  0
   -0.2050    5.7700   -0.0120 H   0  0  0  0  0
   -4.6660   -3.0240    0.4290 H   0  0  0  0  0
   -7.7890   -0.3910   -0.7980 H   0  0  0  0  0
    2.4900   -4.4650    3.2800 H   0  0  0  0  0
    2.0630   -2.8340    3.8520 H   0  0  0  0  0
    1.2400   -3.5240    2.4320 H   0  0  0  0  0
   -1.6390    3.1370   -0.1390 H   0  0  0  0  0
   -3.5860    2.3220   -0.8930 H   0  0  0  0  0
   -2.0660    0.2180    0.5170 H   0  0  0  0  0
    4.3940    0.7010   -0.3190 H   0  0  0  0  0
   -1.4490    1.0560    3.0950 H   0  0  0  0  0
   10.6400   -0.5030   -2.1980 H   0  0  0  0  0
   11.0990   -2.1160   -2.7920 H   0  0  0  0  0
    9.8250   -1.1920   -3.6220 H   0  0  0  0  0
   -6.0270   -4.9580   -0.2580 H   0  0  0  0  0
   -9.1500   -2.3250   -1.4830 H   0  0  0  0  0
   -8.2660   -4.6080   -1.2190 H   0  0  0  0  0
  1 19  1  0  0  0
  1 22  1  0  0  0
  2 19  1  0  0  0
  2 38  1  0  0  0
  2 39  1  0  0  0
  3 35  1  0  0  0
  3 40  1  0  0  0
  3 41  1  0  0  0
  4 29  1  0  0  0
  4  7  2  0  0  0
  5  7  1  0  0  0
  5 42  1  0  0  0
  6 15  1  0  0  0
  6 43  1  0  0  0
  7 44  1  0  0  0
  8 20  1  0  0  0
  8 45  1  0  0  0
  8 46  1  0  0  0
  9 23  1  0  0  0
  9 47  1  0  0  0
  9 48  1  0  0  0
 10  3  1  0  0  0
 10 16  2  0  0  0
 11 49  1  0  0  0
 11 50  1  0  0  0
 12 11  1  0  0  0
 12 28  1  0  0  0
 12 51  1  0  0  0
 12 52  1  0  0  0
 13 11  1  0  0  0
 13 53  1  0  0  0
 13 54  1  0  0  0
 14  6  1  0  0  0
 14 55  1  0  0  0
 14 56  1  0  0  0
 14 57  1  0  0  0
 15 58  1  0  0  0
 15 59  1  0  0  0
 15 60  1  0  0  0
 16 61  1  0  0  0
 17 10  1  0  0  0
 17 62  1  0  0  0
 18 63  1  0  0  0
 18 64  1  0  0  0
 18 65  1  0  0  0
 19  6  1  0  0  0
 20  2  1  0  0  0
 20 66  1  0  0  0
 21 23  1  0  0  0
 21 35  1  0  0  0
 21 67  1  0  0  0
 22  5  2  0  0  0
 23 20  1  0  0  0
 23 68  1  0  0  0
 24 25  2  0  0  0
 24 22  1  0  0  0
 24 69  1  0  0  0
 25  4  1  0  0  0
 26  8  1  0  0  0
 26  9  1  0  0  0
 26 70  1  0  0  0
 27  1  2  0  0  0
 28 25  1  0  0  0
 29 18  1  0  0  0
 30 13  1  0  0  0
 31 30  1  0  0  0
 31 71  1  0  0  0
 31 72  1  0  0  0
 31 73  1  0  0  0
 32 16  1  0  0  0
 32 74  1  0  0  0
 33 17  2  0  0  0
 33 34  1  0  0  0
 33 75  1  0  0  0
 34 32  2  0  0  0
 34 76  1  0  0  0
 35 36  2  0  0  0
 35 37  2  0  0  0
M  END
$$$$
