3ZK
  CCTOOLS-0919241028

 76 78  0  0  1  0  0  0  0  0999 V2000
   -2.0160    2.0180   -0.8900 C   0  0  0  0  0
   -3.8120   -1.2510   -0.4500 C   0  0  0  0  0
   -2.8120   -2.1560   -0.8040 C   0  0  0  0  0
   -1.2970   -0.3430   -1.2130 C   0  0  0  0  0
   -0.6330    3.9380   -0.3090 C   0  0  0  0  0
   -1.5580   -1.6960   -1.1840 C   0  0  0  0  0
    6.5510   -0.3790    0.8670 C   0  0  0  0  0
    4.7730   -1.9280    0.4510 C   0  0  0  0  0
    1.3890    1.8500   -2.0920 C   0  0  0  0  0
    3.3640    0.6840   -1.5140 C   0  0  0  0  0
    7.4180   -1.1820    0.1490 C   0  0  0  0  0
    5.6410   -2.7330   -0.2630 C   0  0  0  0  0
    6.9630   -2.3580   -0.4160 C   0  0  0  0  0
   -7.3260   -1.4170    0.6470 C   0  0  0  0  0
    4.1260    0.2660    1.9420 S   0  0  0  0  0
   -0.8610    2.4930   -0.3830 N   0  0  0  0  0
    3.4440    1.3360    0.8780 N   0  0  0  0  0
    0.1670    1.5640    0.0930 C   0  0  0  0  0
    1.5080    1.9100   -0.5580 C   0  0  0  0  0
   -2.2950    0.5690   -0.8600 C   0  0  0  0  0
    2.5710    0.8490   -0.1930 C   0  0  0  0  0
    5.2290   -0.7540    1.0200 C   0  0  0  0  0
   -3.5560    0.1060   -0.4770 C   0  0  0  0  0
    4.9320    1.0350    2.8230 O   0  0  0  0  0
    3.0760   -0.5810    2.3880 O   0  0  0  0  0
    2.3120    0.7910   -2.5570 N   0  0  0  0  0
   -2.8310    2.7840   -1.3670 O   0  0  0  0  0
   -5.0410   -1.7050   -0.0840 O   0  0  0  0  0
   -3.0640   -3.4900   -0.7770 O   0  0  0  0  0
   -9.5940   -1.0130    1.3780 O   0  0  0  0  0
   -6.0170   -0.7220    0.2660 C   0  0  0  0  0
   -8.3720   -0.3640    1.0220 C   0  0  0  0  0
   -0.0260    4.2900    1.0510 C   0  0  0  0  0
    0.3280    4.3610   -1.4210 C   0  0  0  0  0
    7.9080   -3.2330   -1.2000 C   0  0  0  0  0
   -1.9950   -4.3600   -1.1520 C   0  0  0  0  0
  -10.6430   -0.1150    1.7470 C   0  0  0  0  0
   -0.3210    0.0120   -1.5090 H   0  0  0  0  0
   -1.5810    4.4620   -0.4300 H   0  0  0  0  0
   -0.7860   -2.4000   -1.4570 H   0  0  0  0  0
    6.9080    0.5380    1.3130 H   0  0  0  0  0
    3.7400   -2.2200    0.5700 H   0  0  0  0  0
    0.3660    1.6020   -2.3760 H   0  0  0  0  0
    1.6720    2.8100   -2.5240 H   0  0  0  0  0
    4.0980    1.4820   -1.6240 H   0  0  0  0  0
    3.8490   -0.2920   -1.5520 H   0  0  0  0  0
    8.4510   -0.8890    0.0300 H   0  0  0  0  0
    5.2870   -3.6550   -0.7000 H   0  0  0  0  0
   -7.6860   -2.0020   -0.1990 H   0  0  0  0  0
   -7.1530   -2.0760    1.4980 H   0  0  0  0  0
    3.6220    2.2860    0.9640 H   0  0  0  0  0
    0.2570    1.6460    1.1760 H   0  0  0  0  0
   -0.1130    0.5450   -0.1730 H   0  0  0  0  0
    1.8360    2.9010   -0.2420 H   0  0  0  0  0
    2.0990   -0.0910    0.0940 H   0  0  0  0  0
   -4.3300    0.8080   -0.2040 H   0  0  0  0  0
    1.8270   -0.0860   -2.6730 H   0  0  0  0  0
   -6.1900   -0.0620   -0.5850 H   0  0  0  0  0
   -5.6570   -0.1370    1.1120 H   0  0  0  0  0
   -8.0110    0.2210    1.8680 H   0  0  0  0  0
   -8.5450    0.2950    0.1710 H   0  0  0  0  0
    0.1430    5.3650    1.1060 H   0  0  0  0  0
   -0.7110    3.9890    1.8430 H   0  0  0  0  0
    0.9220    3.7660    1.1720 H   0  0  0  0  0
   -0.1040    4.1110   -2.3900 H   0  0  0  0  0
    0.4980    5.4360   -1.3660 H   0  0  0  0  0
    1.2760    3.8370   -1.3010 H   0  0  0  0  0
    8.3800   -3.9510   -0.5290 H   0  0  0  0  0
    7.3530   -3.7660   -1.9710 H   0  0  0  0  0
    8.6740   -2.6130   -1.6660 H   0  0  0  0  0
   -2.3290   -5.3960   -1.0870 H   0  0  0  0  0
   -1.6890   -4.1410   -2.1750 H   0  0  0  0  0
   -1.1500   -4.2080   -0.4800 H   0  0  0  0  0
  -10.3290    0.4750    2.6080 H   0  0  0  0  0
  -10.8630    0.5490    0.9110 H   0  0  0  0  0
  -11.5360   -0.6850    2.0030 H   0  0  0  0  0
  1 20  1  0  0  0
  2  3  1  0  0  0
  3 29  1  0  0  0
  3  6  2  0  0  0
  4  6  1  0  0  0
  4 38  1  0  0  0
  5 34  1  0  0  0
  5 39  1  0  0  0
  6 40  1  0  0  0
  7 22  1  0  0  0
  7 41  1  0  0  0
  8 42  1  0  0  0
  9 19  1  0  0  0
  9 43  1  0  0  0
  9 44  1  0  0  0
 10 21  1  0  0  0
 10 45  1  0  0  0
 10 46  1  0  0  0
 11  7  2  0  0  0
 11 13  1  0  0  0
 11 47  1  0  0  0
 12  8  1  0  0  0
 12 48  1  0  0  0
 13 12  2  0  0  0
 14 49  1  0  0  0
 14 50  1  0  0  0
 15 25  2  0  0  0
 16  1  1  0  0  0
 16  5  1  0  0  0
 17 15  1  0  0  0
 17 21  1  0  0  0
 17 51  1  0  0  0
 18 16  1  0  0  0
 18 52  1  0  0  0
 18 53  1  0  0  0
 19 18  1  0  0  0
 19 54  1  0  0  0
 20  4  2  0  0  0
 21 19  1  0  0  0
 21 55  1  0  0  0
 22 15  1  0  0  0
 22  8  2  0  0  0
 23  2  2  0  0  0
 23 20  1  0  0  0
 23 56  1  0  0  0
 24 15  2  0  0  0
 26  9  1  0  0  0
 26 10  1  0  0  0
 26 57  1  0  0  0
 27  1  2  0  0  0
 28  2  1  0  0  0
 29 36  1  0  0  0
 30 32  1  0  0  0
 31 14  1  0  0  0
 31 28  1  0  0  0
 31 58  1  0  0  0
 31 59  1  0  0  0
 32 14  1  0  0  0
 32 60  1  0  0  0
 32 61  1  0  0  0
 33  5  1  0  0  0
 33 62  1  0  0  0
 33 63  1  0  0  0
 33 64  1  0  0  0
 34 65  1  0  0  0
 34 66  1  0  0  0
 34 67  1  0  0  0
 35 13  1  0  0  0
 35 68  1  0  0  0
 35 69  1  0  0  0
 35 70  1  0  0  0
 36 71  1  0  0  0
 36 72  1  0  0  0
 36 73  1  0  0  0
 37 30  1  0  0  0
 37 74  1  0  0  0
 37 75  1  0  0  0
 37 76  1  0  0  0
M  END
$$$$
