3ZN
  CCTOOLS-0919241028

 76 78  0  0  1  0  0  0  0  0999 V2000
    0.6690    1.9130    2.0220 C   0  0  0  0  0
    1.5200    0.9430    1.1810 C   0  0  0  0  0
   -0.3310   -2.7840   -0.3070 C   0  0  0  0  0
   -1.6140   -0.0180    0.6320 C   0  0  0  0  0
   -2.7560   -0.9240    0.4010 C   0  0  0  0  0
   -2.5870   -2.3060    0.5100 C   0  0  0  0  0
   -4.8990   -2.6310   -0.0320 C   0  0  0  0  0
   -5.0770   -1.2520   -0.1370 C   0  0  0  0  0
   -3.6550   -3.1500    0.2940 C   0  0  0  0  0
   -4.0110   -0.4000    0.0780 C   0  0  0  0  0
   -5.6980   -4.8680   -0.1140 C   0  0  0  0  0
   -6.4090    0.6770   -0.5420 C   0  0  0  0  0
   -7.8460    1.0560   -0.9030 C   0  0  0  0  0
   -7.9640    2.5780   -0.9990 C   0  0  0  0  0
   -9.5250    4.3400   -1.4520 C   0  0  0  0  0
    4.8710    1.3220   -0.2240 C   0  0  0  0  0
    1.3260    3.2370    1.9550 N   0  0  0  0  0
    2.7060    1.7900    0.6650 C   0  0  0  0  0
    2.7590    2.9630    1.6760 C   0  0  0  0  0
    0.7030    0.4030    0.0050 C   0  0  0  0  0
    3.9380    1.0220    0.6990 O   0  0  0  0  0
   -0.3530   -0.4790    0.5080 N   0  0  0  0  0
   -0.0390   -1.8610    0.8780 C   0  0  0  0  0
   -0.8980   -2.2780    2.0730 C   0  0  0  0  0
   -1.8100    1.1430    0.9340 O   0  0  0  0  0
   -5.9480   -3.4670   -0.2440 O   0  0  0  0  0
   -6.2990   -0.7450   -0.4520 O   0  0  0  0  0
   -9.3060    2.9320   -1.3360 O   0  0  0  0  0
    6.0370    0.6470   -0.2480 N   0  0  0  0  0
    4.6610    2.2010   -1.0360 O   0  0  0  0  0
    7.0520    0.9730   -1.2520 C   0  0  0  0  0
    8.2520    0.0800   -1.0630 C   0  0  0  0  0
    8.3210   -1.1330   -1.7230 C   0  0  0  0  0
   10.4510   -1.5580   -0.7160 C   0  0  0  0  0
   10.3850   -0.3420   -0.0610 C   0  0  0  0  0
    9.4210   -1.9520   -1.5490 C   0  0  0  0  0
    9.2840    0.4770   -0.2340 C   0  0  0  0  0
   -0.3380    1.9770    1.6090 H   0  0  0  0  0
    0.6250    1.5690    3.0550 H   0  0  0  0  0
    1.8800    0.1220    1.8000 H   0  0  0  0  0
    0.5470   -2.8400   -0.9500 H   0  0  0  0  0
   -0.5760   -3.7810    0.0610 H   0  0  0  0  0
   -1.1730   -2.3900   -0.8760 H   0  0  0  0  0
   -1.6190   -2.7130    0.7640 H   0  0  0  0  0
   -3.5220   -4.2190    0.3790 H   0  0  0  0  0
   -4.1470    0.6680   -0.0020 H   0  0  0  0  0
   -4.9340   -5.1680   -0.8310 H   0  0  0  0  0
   -5.3520   -5.0820    0.8970 H   0  0  0  0  0
   -6.6170   -5.4210   -0.3080 H   0  0  0  0  0
   -5.7320    1.0450   -1.3130 H   0  0  0  0  0
   -6.1450    1.1230    0.4170 H   0  0  0  0  0
   -8.1100    0.6090   -1.8620 H   0  0  0  0  0
   -8.5230    0.6880   -0.1320 H   0  0  0  0  0
   -7.7000    3.0250   -0.0410 H   0  0  0  0  0
   -7.2870    2.9460   -1.7700 H   0  0  0  0  0
   -8.8800    4.7440   -2.2320 H   0  0  0  0  0
  -10.5680    4.5250   -1.7090 H   0  0  0  0  0
   -9.2930    4.8230   -0.5030 H   0  0  0  0  0
    1.2160    3.7390    2.8230 H   0  0  0  0  0
    2.5100    2.1570   -0.3420 H   0  0  0  0  0
    3.2370    3.8350    1.2280 H   0  0  0  0  0
    3.2780    2.6640    2.5860 H   0  0  0  0  0
    0.2540    1.2350   -0.5380 H   0  0  0  0  0
    1.3560   -0.1570   -0.6640 H   0  0  0  0  0
    1.0150   -1.9350    1.1440 H   0  0  0  0  0
   -1.9010   -1.8680    1.9600 H   0  0  0  0  0
   -0.9530   -3.3650    2.1200 H   0  0  0  0  0
   -0.4510   -1.8970    2.9920 H   0  0  0  0  0
    6.2040   -0.0550    0.4000 H   0  0  0  0  0
    6.6390    0.8200   -2.2490 H   0  0  0  0  0
    7.3530    2.0150   -1.1400 H   0  0  0  0  0
    7.5160   -1.4400   -2.3740 H   0  0  0  0  0
   11.3110   -2.1980   -0.5790 H   0  0  0  0  0
   11.1920   -0.0320    0.5860 H   0  0  0  0  0
    9.4750   -2.8990   -2.0630 H   0  0  0  0  0
    9.2330    1.4270    0.2770 H   0  0  0  0  0
  1  2  1  0  0  0
  1 38  1  0  0  0
  1 39  1  0  0  0
  2 20  1  0  0  0
  2 40  1  0  0  0
  3 41  1  0  0  0
  3 42  1  0  0  0
  3 43  1  0  0  0
  4  5  1  0  0  0
  5  6  2  0  0  0
  6  9  1  0  0  0
  6 44  1  0  0  0
  7 26  1  0  0  0
  7  9  2  0  0  0
  8  7  1  0  0  0
  9 45  1  0  0  0
 10  8  2  0  0  0
 10  5  1  0  0  0
 10 46  1  0  0  0
 11 47  1  0  0  0
 11 48  1  0  0  0
 11 49  1  0  0  0
 12 13  1  0  0  0
 12 27  1  0  0  0
 12 50  1  0  0  0
 12 51  1  0  0  0
 13 52  1  0  0  0
 13 53  1  0  0  0
 14 13  1  0  0  0
 14 54  1  0  0  0
 14 55  1  0  0  0
 15 28  1  0  0  0
 15 56  1  0  0  0
 15 57  1  0  0  0
 15 58  1  0  0  0
 16 21  1  0  0  0
 16 30  2  0  0  0
 17 19  1  0  0  0
 17  1  1  0  0  0
 17 59  1  0  0  0
 18  2  1  0  0  0
 18 60  1  0  0  0
 19 18  1  0  0  0
 19 61  1  0  0  0
 19 62  1  0  0  0
 20 22  1  0  0  0
 20 63  1  0  0  0
 20 64  1  0  0  0
 21 18  1  0  0  0
 22  4  1  0  0  0
 22 23  1  0  0  0
 23  3  1  0  0  0
 23 65  1  0  0  0
 24 23  1  0  0  0
 24 66  1  0  0  0
 24 67  1  0  0  0
 24 68  1  0  0  0
 25  4  2  0  0  0
 26 11  1  0  0  0
 27  8  1  0  0  0
 28 14  1  0  0  0
 29 16  1  0  0  0
 29 69  1  0  0  0
 31 29  1  0  0  0
 31 70  1  0  0  0
 31 71  1  0  0  0
 32 31  1  0  0  0
 32 33  2  0  0  0
 33 72  1  0  0  0
 34 36  2  0  0  0
 34 73  1  0  0  0
 35 37  2  0  0  0
 35 34  1  0  0  0
 35 74  1  0  0  0
 36 33  1  0  0  0
 36 75  1  0  0  0
 37 32  1  0  0  0
 37 76  1  0  0  0
M  END
$$$$
