43T
  CCTOOLS-0919241029

 60 62  0  0  1  0  0  0  0  0999 V2000
    4.4080    1.4900    0.8390 C   0  0  0  0  0
    3.3910    0.6110    1.5250 C   0  0  0  0  0
    3.3290   -0.6980    1.2050 N   0  0  0  0  0
    4.1960   -1.2230    0.2700 C   0  0  0  0  0
    4.8150   -0.4640   -0.5800 N   0  0  0  0  0
    4.6200    0.9860   -0.5900 C   0  0  0  0  0
    3.3930    1.3290   -1.4380 C   0  0  0  0  0
    5.8550    1.6610   -1.1900 C   0  0  0  0  0
    4.4080   -2.5810    0.2370 N   0  0  0  0  0
    2.3400   -1.5630    1.8530 C   0  0  0  0  0
    2.6390    1.0760    2.3540 O   0  0  0  0  0
    5.9970    1.2530   -2.6580 C   0  0  0  0  0
    5.7030    3.1800   -1.0940 C   0  0  0  0  0
    1.0670   -1.5640    1.0450 C   0  0  0  0  0
    0.0870   -0.6270    1.3040 C   0  0  0  0  0
   -1.0900   -0.6280    0.5560 C   0  0  0  0  0
   -1.2700   -1.5770   -0.4520 C   0  0  0  0  0
   -0.2810   -2.5090   -0.7020 C   0  0  0  0  0
    0.8880   -2.4990    0.0420 C   0  0  0  0  0
   -0.4520   -3.4290   -1.6760 F   0  0  0  0  0
   -2.1440    0.3720    0.8300 C   0  0  0  0  0
   -1.9860    1.1970    1.7080 O   0  0  0  0  0
   -3.2810    0.3700    0.1050 N   0  0  0  0  0
   -4.3250    1.3610    0.3770 C   0  0  0  0  0
   -5.6590    0.8210   -0.0710 C   0  0  0  0  0
   -6.7860    1.0410    0.6980 C   0  0  0  0  0
   -8.0100    0.5450    0.2880 C   0  0  0  0  0
   -8.1060   -0.1710   -0.8910 C   0  0  0  0  0
   -6.9780   -0.3910   -1.6600 C   0  0  0  0  0
   -5.7550    0.1100   -1.2520 C   0  0  0  0  0
   -4.0150    2.6500   -0.3870 C   0  0  0  0  0
    4.0440    2.5170    0.8130 H   0  0  0  0  0
    5.3510    1.4510    1.3840 H   0  0  0  0  0
    3.2510    2.4090   -1.4510 H   0  0  0  0  0
    3.5430    0.9700   -2.4560 H   0  0  0  0  0
    2.5110    0.8510   -1.0110 H   0  0  0  0  0
    6.7430    1.3490   -0.6390 H   0  0  0  0  0
    3.9510   -3.1580    0.8680 H   0  0  0  0  0
    5.0160   -2.9610   -0.4160 H   0  0  0  0  0
    2.7310   -2.5780    1.9160 H   0  0  0  0  0
    2.1330   -1.1900    2.8560 H   0  0  0  0  0
    5.1090    1.5650   -3.2090 H   0  0  0  0  0
    6.8770    1.7340   -3.0850 H   0  0  0  0  0
    6.1050    0.1710   -2.7260 H   0  0  0  0  0
    5.6020    3.4700   -0.0490 H   0  0  0  0  0
    6.5840    3.6610   -1.5210 H   0  0  0  0  0
    4.8160    3.4920   -1.6450 H   0  0  0  0  0
    0.2310    0.1040    2.0860 H   0  0  0  0  0
   -2.1800   -1.5820   -1.0340 H   0  0  0  0  0
    1.6600   -3.2260   -0.1590 H   0  0  0  0  0
   -3.4070   -0.2890   -0.5960 H   0  0  0  0  0
   -4.3580    1.5700    1.4460 H   0  0  0  0  0
   -6.7120    1.6000    1.6190 H   0  0  0  0  0
   -8.8910    0.7160    0.8880 H   0  0  0  0  0
   -9.0610   -0.5590   -1.2110 H   0  0  0  0  0
   -7.0530   -0.9510   -2.5800 H   0  0  0  0  0
   -4.8740   -0.0620   -1.8530 H   0  0  0  0  0
   -4.7920    3.3880   -0.1850 H   0  0  0  0  0
   -3.0500    3.0410   -0.0630 H   0  0  0  0  0
   -3.9820    2.4400   -1.4560 H   0  0  0  0  0
  1  2  1  0  0  0
  1 32  1  0  0  0
  1 33  1  0  0  0
  2 11  2  0  0  0
  2  3  1  0  0  0
  3 10  1  0  0  0
  4  3  1  0  0  0
  4  9  1  0  0  0
  5  4  2  0  0  0
  6  1  1  0  0  0
  6  5  1  0  0  0
  7  6  1  0  0  0
  7 34  1  0  0  0
  7 35  1  0  0  0
  7 36  1  0  0  0
  8  6  1  0  0  0
  8 37  1  0  0  0
  9 38  1  0  0  0
  9 39  1  0  0  0
 10 40  1  0  0  0
 10 41  1  0  0  0
 12  8  1  0  0  0
 12 42  1  0  0  0
 12 43  1  0  0  0
 12 44  1  0  0  0
 13  8  1  0  0  0
 13 45  1  0  0  0
 13 46  1  0  0  0
 13 47  1  0  0  0
 14 10  1  0  0  0
 14 19  2  0  0  0
 15 14  1  0  0  0
 15 48  1  0  0  0
 16 15  2  0  0  0
 16 17  1  0  0  0
 17 18  2  0  0  0
 17 49  1  0  0  0
 18 19  1  0  0  0
 18 20  1  0  0  0
 19 50  1  0  0  0
 21 16  1  0  0  0
 22 21  2  0  0  0
 23 21  1  0  0  0
 23 51  1  0  0  0
 24 23  1  0  0  0
 24 52  1  0  0  0
 25 24  1  0  0  0
 26 25  2  0  0  0
 26 53  1  0  0  0
 27 26  1  0  0  0
 27 54  1  0  0  0
 28 27  2  0  0  0
 28 29  1  0  0  0
 28 55  1  0  0  0
 29 30  2  0  0  0
 29 56  1  0  0  0
 30 25  1  0  0  0
 30 57  1  0  0  0
 31 24  1  0  0  0
 31 58  1  0  0  0
 31 59  1  0  0  0
 31 60  1  0  0  0
M  END
$$$$
