4IG
  CCTOOLS-0919241031

 59 62  0  0  1  0  0  0  0  0999 V2000
   -3.9680   -0.0770   -0.9460 C   0  0  0  0  0
   -5.1770   -0.0770   -0.3990 N   0  0  0  0  0
   -5.4450    0.6840    0.6530 C   0  0  0  0  0
   -4.5290    1.4700    1.2000 N   0  0  0  0  0
   -3.3000    1.5270    0.7140 C   0  0  0  0  0
   -2.9720    0.7500   -0.3940 C   0  0  0  0  0
   -3.6920   -0.8730   -2.0440 N   0  0  0  0  0
   -6.7180    0.6560    1.1940 N   0  0  0  0  0
   -2.2700    2.4260    1.3480 C   0  0  0  0  0
   -1.5240    1.6570    2.4400 C   0  0  0  0  0
   -1.1240    1.9530   -1.5590 C   0  0  0  0  0
    0.1440    1.9870   -2.1000 C   0  0  0  0  0
    0.9530    0.8580   -2.0610 C   0  0  0  0  0
    0.4740   -0.3080   -1.4660 C   0  0  0  0  0
   -0.7950   -0.3490   -0.9210 C   0  0  0  0  0
   -1.6060    0.7850   -0.9710 C   0  0  0  0  0
    2.1920    0.9020   -2.6080 O   0  0  0  0  0
    3.1020    0.1940   -1.7770 C   0  0  0  0  0
    2.6350   -1.2250   -1.5730 C   0  0  0  0  0
    1.3040   -1.4420   -1.4190 N   0  0  0  0  0
    0.7610   -2.7870   -1.2170 C   0  0  0  0  0
    0.7100   -3.0960    0.2810 C   0  0  0  0  0
    0.1430   -4.5010    0.4930 C   0  0  0  0  0
    0.0960   -4.7900    1.8920 O   0  0  0  0  0
   -0.4400   -6.1080    2.0240 C   0  0  0  0  0
    3.4250   -2.1450   -1.5460 O   0  0  0  0  0
    3.7830    0.8330    1.8830 C   0  0  0  0  0
    3.6980    0.2020    0.6540 C   0  0  0  0  0
    3.1930    0.8820   -0.4390 C   0  0  0  0  0
    2.7770    2.1930   -0.3070 C   0  0  0  0  0
    2.8560    2.8240    0.9230 C   0  0  0  0  0
    3.3610    2.1450    2.0180 C   0  0  0  0  0
    4.2760    0.1690    2.9510 F   0  0  0  0  0
    2.4450    4.1050    1.0530 F   0  0  0  0  0
   -4.3860   -1.4360   -2.4210 H   0  0  0  0  0
   -2.8060   -0.8660   -2.4380 H   0  0  0  0  0
   -6.9290    1.2080    1.9640 H   0  0  0  0  0
   -7.3990    0.0860    0.8050 H   0  0  0  0  0
   -2.7640    3.2920    1.7870 H   0  0  0  0  0
   -1.5610    2.7580    0.5890 H   0  0  0  0  0
   -0.7790    2.3070    2.8990 H   0  0  0  0  0
   -2.2330    1.3240    3.1990 H   0  0  0  0  0
   -1.0290    0.7900    2.0010 H   0  0  0  0  0
   -1.7460    2.8350   -1.5930 H   0  0  0  0  0
    0.5110    2.8950   -2.5570 H   0  0  0  0  0
   -1.1600   -1.2560   -0.4620 H   0  0  0  0  0
    4.0860    0.1860   -2.2450 H   0  0  0  0  0
   -0.2450   -2.8390   -1.6330 H   0  0  0  0  0
    1.3990   -3.5160   -1.7170 H   0  0  0  0  0
    1.7160   -3.0440    0.6970 H   0  0  0  0  0
    0.0720   -2.3680    0.7810 H   0  0  0  0  0
   -0.8630   -4.5530    0.0770 H   0  0  0  0  0
    0.7810   -5.2300   -0.0070 H   0  0  0  0  0
    0.2050   -6.8160    1.5040 H   0  0  0  0  0
   -0.4960   -6.3740    3.0790 H   0  0  0  0  0
   -1.4390   -6.1400    1.5880 H   0  0  0  0  0
    4.0260   -0.8210    0.5480 H   0  0  0  0  0
    2.3830    2.7230   -1.1620 H   0  0  0  0  0
    3.4270    2.6380    2.9770 H   0  0  0  0  0
  1  2  1  0  0  0
  1  6  2  0  0  0
  1  7  1  0  0  0
  2  3  2  0  0  0
  3  4  1  0  0  0
  3  8  1  0  0  0
  4  5  2  0  0  0
  5  6  1  0  0  0
  5  9  1  0  0  0
  6 16  1  0  0  0
  7 35  1  0  0  0
  7 36  1  0  0  0
  8 37  1  0  0  0
  8 38  1  0  0  0
  9 10  1  0  0  0
  9 39  1  0  0  0
  9 40  1  0  0  0
 10 41  1  0  0  0
 10 42  1  0  0  0
 10 43  1  0  0  0
 11 12  2  0  0  0
 11 16  1  0  0  0
 11 44  1  0  0  0
 12 13  1  0  0  0
 12 45  1  0  0  0
 13 14  2  0  0  0
 13 17  1  0  0  0
 14 15  1  0  0  0
 14 20  1  0  0  0
 15 16  2  0  0  0
 15 46  1  0  0  0
 17 18  1  0  0  0
 18 19  1  0  0  0
 18 29  1  0  0  0
 18 47  1  0  0  0
 19 20  1  0  0  0
 19 26  2  0  0  0
 20 21  1  0  0  0
 21 22  1  0  0  0
 21 48  1  0  0  0
 21 49  1  0  0  0
 22 23  1  0  0  0
 22 50  1  0  0  0
 22 51  1  0  0  0
 23 24  1  0  0  0
 23 52  1  0  0  0
 23 53  1  0  0  0
 24 25  1  0  0  0
 25 54  1  0  0  0
 25 55  1  0  0  0
 25 56  1  0  0  0
 27 28  2  0  0  0
 27 32  1  0  0  0
 27 33  1  0  0  0
 28 29  1  0  0  0
 28 57  1  0  0  0
 29 30  2  0  0  0
 30 31  1  0  0  0
 30 58  1  0  0  0
 31 32  2  0  0  0
 31 34  1  0  0  0
 32 59  1  0  0  0
M  END
$$$$
