4LG
  CCTOOLS-0919241031

 80 84  0  0  1  0  0  0  0  0999 V2000
   -9.1450    2.9790    2.1880 C   0  0  0  0  0
   -8.1170    2.0990    1.7290 O   0  0  0  0  0
   -8.6800    1.2910    0.7930 C   0  0  0  0  0
   -7.9130    0.3280    0.1530 C   0  0  0  0  0
   -6.4550    0.1730    0.5000 C   0  0  0  0  0
   -5.8890   -0.8800   -0.2830 O   0  0  0  0  0
  -10.0220    1.4350    0.4670 C   0  0  0  0  0
  -10.5920    0.6130   -0.4850 C   0  0  0  0  0
   -9.8270   -0.3500   -1.1170 C   0  0  0  0  0
   -8.4890   -0.4920   -0.7980 C   0  0  0  0  0
    3.6720    0.4110   -0.9210 C   0  0  0  0  0
    3.4920    1.6180   -0.2720 C   0  0  0  0  0
    3.1070    2.7410   -0.9960 C   0  0  0  0  0
    2.8930    2.6270   -2.3830 C   0  0  0  0  0
    3.0800    1.3990   -3.0200 C   0  0  0  0  0
    3.4640    0.3080   -2.2940 C   0  0  0  0  0
    2.8460    4.0480   -0.6510 N   0  0  0  0  0
    2.4870    4.7610   -1.7640 C   0  0  0  0  0
    2.4960    3.9620   -2.8410 C   0  0  0  0  0
    2.9450    4.5960    0.7050 C   0  0  0  0  0
    4.3700    4.9980    0.9820 C   0  0  0  0  0
    4.6990    5.5280    2.1700 O   0  0  0  0  0
    5.2170    4.8430    0.1340 O   0  0  0  0  0
    6.0730    5.9160    2.4370 C   0  0  0  0  0
    4.5840   -3.0340   -0.4080 C   0  0  0  0  0
    5.8900   -2.7710    0.3450 C   0  0  0  0  0
    6.1900   -3.9300    1.1970 N   0  0  0  0  0
    5.2330   -3.8910    2.3080 C   0  0  0  0  0
    3.8270   -3.8240    1.7850 C   0  0  0  0  0
    3.5410   -3.4230    0.5400 N   0  0  0  0  0
    2.9150   -4.1430    2.5190 O   0  0  0  0  0
    4.1550   -1.7640   -1.1440 C   0  0  0  0  0
    4.0540   -0.6850   -0.2130 O   0  0  0  0  0
    1.7390   -4.2570   -0.8370 C   0  0  0  0  0
    2.2020   -3.3760    0.1320 C   0  0  0  0  0
    1.3340   -2.4540    0.7010 C   0  0  0  0  0
    0.0150   -2.4040    0.2950 C   0  0  0  0  0
   -0.4460   -3.2840   -0.6740 C   0  0  0  0  0
    0.4190   -4.2100   -1.2380 C   0  0  0  0  0
   -1.7460   -3.2390   -1.0690 O   0  0  0  0  0
   -2.3710   -2.1970   -0.3170 C   0  0  0  0  0
   -3.8440   -2.0930   -0.7160 C   0  0  0  0  0
   -4.5130   -0.9770    0.0900 C   0  0  0  0  0
   -9.5240    3.5640    1.3500 H   0  0  0  0  0
   -9.9570    2.3940    2.6200 H   0  0  0  0  0
   -8.7380    3.6490    2.9450 H   0  0  0  0  0
   -6.3570   -0.0680    1.5580 H   0  0  0  0  0
   -5.9300    1.1050    0.2890 H   0  0  0  0  0
  -10.6200    2.1870    0.9600 H   0  0  0  0  0
  -11.6370    0.7220   -0.7350 H   0  0  0  0  0
  -10.2740   -0.9910   -1.8620 H   0  0  0  0  0
   -7.8930   -1.2440   -1.2940 H   0  0  0  0  0
    3.6550    1.6910    0.7940 H   0  0  0  0  0
    2.9200    1.3120   -4.0840 H   0  0  0  0  0
    3.6080   -0.6410   -2.7880 H   0  0  0  0  0
    2.2340    5.8110   -1.7720 H   0  0  0  0  0
    2.2560    4.2470   -3.8550 H   0  0  0  0  0
    2.6340    3.8400    1.4250 H   0  0  0  0  0
    2.2980    5.4680    0.7910 H   0  0  0  0  0
    6.1460    6.3230    3.4450 H   0  0  0  0  0
    6.7200    5.0430    2.3500 H   0  0  0  0  0
    6.3840    6.6720    1.7160 H   0  0  0  0  0
    4.7370   -3.8370   -1.1290 H   0  0  0  0  0
    6.7000   -2.6230   -0.3690 H   0  0  0  0  0
    5.7800   -1.8810    0.9650 H   0  0  0  0  0
    7.1030   -3.7680    1.5950 H   0  0  0  0  0
    5.3490   -4.7880    2.9160 H   0  0  0  0  0
    5.4310   -3.0130    2.9240 H   0  0  0  0  0
    3.1870   -1.9270   -1.6170 H   0  0  0  0  0
    4.8950   -1.5180   -1.9060 H   0  0  0  0  0
    2.4130   -4.9770   -1.2780 H   0  0  0  0  0
    1.6930   -1.7690    1.4550 H   0  0  0  0  0
   -0.6580   -1.6840    0.7340 H   0  0  0  0  0
    0.0590   -4.8950   -1.9920 H   0  0  0  0  0
   -2.2970   -2.4230    0.7470 H   0  0  0  0  0
   -1.8710   -1.2510   -0.5220 H   0  0  0  0  0
   -3.9170   -1.8670   -1.7790 H   0  0  0  0  0
   -4.3440   -3.0390   -0.5100 H   0  0  0  0  0
   -4.4400   -1.2040    1.1540 H   0  0  0  0  0
   -4.0130   -0.0310   -0.1150 H   0  0  0  0  0
  1  2  1  0  0  0
  1 44  1  0  0  0
  1 45  1  0  0  0
  1 46  1  0  0  0
  2  3  1  0  0  0
  3  4  2  0  0  0
  3  7  1  0  0  0
  4  5  1  0  0  0
  4 10  1  0  0  0
  5  6  1  0  0  0
  5 47  1  0  0  0
  5 48  1  0  0  0
  6 43  1  0  0  0
  7  8  2  0  0  0
  7 49  1  0  0  0
  8  9  1  0  0  0
  8 50  1  0  0  0
  9 10  2  0  0  0
  9 51  1  0  0  0
 10 52  1  0  0  0
 11 12  2  0  0  0
 11 16  1  0  0  0
 11 33  1  0  0  0
 12 13  1  0  0  0
 12 53  1  0  0  0
 13 14  2  0  0  0
 13 17  1  0  0  0
 14 15  1  0  0  0
 14 19  1  0  0  0
 15 16  2  0  0  0
 15 54  1  0  0  0
 16 55  1  0  0  0
 17 18  1  0  0  0
 17 20  1  0  0  0
 18 19  2  0  0  0
 18 56  1  0  0  0
 19 57  1  0  0  0
 20 21  1  0  0  0
 20 58  1  0  0  0
 20 59  1  0  0  0
 21 22  1  0  0  0
 21 23  2  0  0  0
 22 24  1  0  0  0
 24 60  1  0  0  0
 24 61  1  0  0  0
 24 62  1  0  0  0
 25 26  1  0  0  0
 25 30  1  0  0  0
 25 32  1  0  0  0
 25 63  1  0  0  0
 26 27  1  0  0  0
 26 64  1  0  0  0
 26 65  1  0  0  0
 27 28  1  0  0  0
 27 66  1  0  0  0
 28 29  1  0  0  0
 28 67  1  0  0  0
 28 68  1  0  0  0
 29 30  1  0  0  0
 29 31  2  0  0  0
 30 35  1  0  0  0
 32 33  1  0  0  0
 32 69  1  0  0  0
 32 70  1  0  0  0
 34 35  2  0  0  0
 34 39  1  0  0  0
 34 71  1  0  0  0
 35 36  1  0  0  0
 36 37  2  0  0  0
 36 72  1  0  0  0
 37 38  1  0  0  0
 37 73  1  0  0  0
 38 39  2  0  0  0
 38 40  1  0  0  0
 39 74  1  0  0  0
 40 41  1  0  0  0
 41 42  1  0  0  0
 41 75  1  0  0  0
 41 76  1  0  0  0
 42 43  1  0  0  0
 42 77  1  0  0  0
 42 78  1  0  0  0
 43 79  1  0  0  0
 43 80  1  0  0  0
M  END
$$$$
