5IG
  CCTOOLS-0919241036

 55 57  0  0  0  0  0  0  0  0999 V2000
   -3.0640    0.0400    1.3480 C   0  0  0  0  0
   -4.3190    0.4600    1.2360 N   0  0  0  0  0
   -5.0190    0.2160    0.1380 C   0  0  0  0  0
   -4.5070   -0.4510   -0.8860 N   0  0  0  0  0
   -3.2640   -0.9040   -0.8540 C   0  0  0  0  0
   -2.4890   -0.6760    0.2810 C   0  0  0  0  0
   -2.3360    0.2970    2.4960 N   0  0  0  0  0
   -6.3240    0.6690    0.0590 N   0  0  0  0  0
   -2.6960   -1.6600   -2.0270 C   0  0  0  0  0
   -0.8300   -2.5360    0.3700 C   0  0  0  0  0
    0.4690   -2.9940    0.4470 C   0  0  0  0  0
    1.5260   -2.0950    0.5140 C   0  0  0  0  0
    1.2650   -0.7270    0.4970 C   0  0  0  0  0
   -0.0340   -0.2600    0.4180 C   0  0  0  0  0
   -1.0920   -1.1670    0.3600 C   0  0  0  0  0
    2.7950   -2.5610    0.6030 O   0  0  0  0  0
    3.6500   -1.7620   -0.2040 C   0  0  0  0  0
    3.5590   -0.3130    0.2050 C   0  0  0  0  0
    2.3420    0.1750    0.5520 N   0  0  0  0  0
    2.1600    1.5700    0.9630 C   0  0  0  0  0
    1.8550    2.4280   -0.2660 C   0  0  0  0  0
    1.6640    3.8840    0.1630 C   0  0  0  0  0
    1.3790    4.6860   -0.9850 O   0  0  0  0  0
    1.2130    6.0270   -0.5210 C   0  0  0  0  0
    5.0940   -2.2430   -0.0430 C   0  0  0  0  0
    3.2330   -1.8960   -1.6700 C   0  0  0  0  0
    4.5450    0.3940    0.2230 O   0  0  0  0  0
   -2.0370   -0.6770   -2.9970 C   0  0  0  0  0
   -2.7420    0.7880    3.2280 H   0  0  0  0  0
   -1.4200   -0.0140    2.5690 H   0  0  0  0  0
   -6.8500    0.4980   -0.7380 H   0  0  0  0  0
   -6.7130    1.1590    0.8010 H   0  0  0  0  0
   -3.4970   -2.1930   -2.5380 H   0  0  0  0  0
   -1.9520   -2.3740   -1.6730 H   0  0  0  0  0
   -1.6470   -3.2400    0.3170 H   0  0  0  0  0
    0.6640   -4.0560    0.4560 H   0  0  0  0  0
   -0.2290    0.8020    0.4060 H   0  0  0  0  0
    1.3300    1.6350    1.6670 H   0  0  0  0  0
    3.0710    1.9300    1.4410 H   0  0  0  0  0
    2.6840    2.3620   -0.9700 H   0  0  0  0  0
    0.9430    2.0680   -0.7440 H   0  0  0  0  0
    0.8350    3.9500    0.8670 H   0  0  0  0  0
    2.5750    4.2440    0.6410 H   0  0  0  0  0
    0.9930    6.6790   -1.3660 H   0  0  0  0  0
    0.3890    6.0660    0.1920 H   0  0  0  0  0
    2.1300    6.3600   -0.0350 H   0  0  0  0  0
    5.1660   -3.2850   -0.3550 H   0  0  0  0  0
    5.7520   -1.6320   -0.6610 H   0  0  0  0  0
    5.3920   -2.1550    1.0010 H   0  0  0  0  0
    2.2020   -1.5610   -1.7870 H   0  0  0  0  0
    3.8870   -1.2840   -2.2920 H   0  0  0  0  0
    3.3120   -2.9390   -1.9760 H   0  0  0  0  0
   -1.2360   -0.1440   -2.4860 H   0  0  0  0  0
   -1.6260   -1.2240   -3.8450 H   0  0  0  0  0
   -2.7810    0.0370   -3.3510 H   0  0  0  0  0
  1  2  2  0  0  0
  1  6  1  0  0  0
  1  7  1  0  0  0
  2  3  1  0  0  0
  3  4  2  0  0  0
  3  8  1  0  0  0
  4  5  1  0  0  0
  5  6  2  0  0  0
  5  9  1  0  0  0
  6 15  1  0  0  0
  7 29  1  0  0  0
  7 30  1  0  0  0
  8 31  1  0  0  0
  8 32  1  0  0  0
  9 28  1  0  0  0
  9 33  1  0  0  0
  9 34  1  0  0  0
 10 11  1  0  0  0
 10 15  2  0  0  0
 10 35  1  0  0  0
 11 12  2  0  0  0
 11 36  1  0  0  0
 12 13  1  0  0  0
 12 16  1  0  0  0
 13 14  2  0  0  0
 13 19  1  0  0  0
 14 15  1  0  0  0
 14 37  1  0  0  0
 16 17  1  0  0  0
 17 18  1  0  0  0
 17 25  1  0  0  0
 17 26  1  0  0  0
 18 19  1  0  0  0
 18 27  2  0  0  0
 19 20  1  0  0  0
 20 21  1  0  0  0
 20 38  1  0  0  0
 20 39  1  0  0  0
 21 22  1  0  0  0
 21 40  1  0  0  0
 21 41  1  0  0  0
 22 23  1  0  0  0
 22 42  1  0  0  0
 22 43  1  0  0  0
 23 24  1  0  0  0
 24 44  1  0  0  0
 24 45  1  0  0  0
 24 46  1  0  0  0
 25 47  1  0  0  0
 25 48  1  0  0  0
 25 49  1  0  0  0
 26 50  1  0  0  0
 26 51  1  0  0  0
 26 52  1  0  0  0
 28 53  1  0  0  0
 28 54  1  0  0  0
 28 55  1  0  0  0
M  END
$$$$
