6IG
  CCTOOLS-0919241041

 68 71  0  0  0  0  0  0  0  0999 V2000
   -0.1870   -2.3040   -0.1190 C   0  0  0  0  0
   -0.8380   -3.3100   -0.6920 N   0  0  0  0  0
   -0.1780   -4.3180   -1.2420 C   0  0  0  0  0
    1.1460   -4.3700   -1.2480 N   0  0  0  0  0
    1.8690   -3.4070   -0.6980 C   0  0  0  0  0
    1.2200   -2.3280   -0.1020 C   0  0  0  0  0
   -0.8800   -1.2540    0.4550 N   0  0  0  0  0
   -0.8930   -5.3470   -1.8290 N   0  0  0  0  0
    3.3740   -3.4800   -0.7120 C   0  0  0  0  0
    3.9060   -2.8030   -1.9760 C   0  0  0  0  0
    2.7140   -1.4590    1.6970 C   0  0  0  0  0
    3.4250   -0.4280    2.2730 C   0  0  0  0  0
    3.4320    0.8360    1.7000 C   0  0  0  0  0
    2.7250    1.0760    0.5350 C   0  0  0  0  0
    2.0040    0.0340   -0.0530 C   0  0  0  0  0
    1.9920   -1.2290    0.5260 C   0  0  0  0  0
    4.2240    1.9160    2.3960 C   0  0  0  0  0
    4.3590    3.1230    1.4640 C   0  0  0  0  0
    2.9810    3.3780    0.8400 C   0  0  0  0  0
    2.6880    2.3090   -0.1110 N   0  0  0  0  0
    1.3030    2.5100   -0.5580 C   0  0  0  0  0
    1.1440    3.9320   -1.1000 C   0  0  0  0  0
   -0.2800    4.1210   -1.6270 C   0  0  0  0  0
   -0.3970    5.4100   -2.2330 O   0  0  0  0  0
   -1.7680    5.5670   -2.6070 C   0  0  0  0  0
   -2.3370   -1.1810    0.3290 C   0  0  0  0  0
   -2.8380    0.1280    0.9410 C   0  0  0  0  0
   -7.1080    0.1960    0.8630 C   0  0  0  0  0
   -6.4460   -0.4120    1.9130 C   0  0  0  0  0
   -5.0640   -0.4330    1.9380 C   0  0  0  0  0
   -4.3450    0.1520    0.9130 C   0  0  0  0  0
   -5.0070    0.7650   -0.1340 C   0  0  0  0  0
   -6.3890    0.7830   -0.1620 C   0  0  0  0  0
   -0.4000   -0.5650    0.9420 H   0  0  0  0  0
   -0.4240   -6.0930   -2.2360 H   0  0  0  0  0
   -1.8620   -5.3240   -1.8330 H   0  0  0  0  0
    3.6870   -4.5240   -0.7000 H   0  0  0  0  0
    3.7710   -2.9720    0.1670 H   0  0  0  0  0
    4.9950   -2.8550   -1.9860 H   0  0  0  0  0
    3.5090   -3.3110   -2.8550 H   0  0  0  0  0
    3.5930   -1.7590   -1.9880 H   0  0  0  0  0
    2.7160   -2.4390    2.1490 H   0  0  0  0  0
    3.9820   -0.6060    3.1810 H   0  0  0  0  0
    1.4490    0.2120   -0.9620 H   0  0  0  0  0
    3.7070    2.2160    3.3080 H   0  0  0  0  0
    5.2140    1.5370    2.6470 H   0  0  0  0  0
    4.6750    3.9970    2.0340 H   0  0  0  0  0
    5.0860    2.9070    0.6810 H   0  0  0  0  0
    2.2220    3.3890    1.6230 H   0  0  0  0  0
    2.9870    4.3370    0.3220 H   0  0  0  0  0
    1.0680    1.7930   -1.3450 H   0  0  0  0  0
    0.6250    2.3640    0.2820 H   0  0  0  0  0
    1.3330    4.6490   -0.3010 H   0  0  0  0  0
    1.8550    4.0940   -1.9100 H   0  0  0  0  0
   -0.4990    3.3500   -2.3670 H   0  0  0  0  0
   -0.9870    4.0420   -0.8010 H   0  0  0  0  0
   -2.0670    4.7370   -3.2460 H   0  0  0  0  0
   -2.3890    5.5790   -1.7120 H   0  0  0  0  0
   -1.8910    6.5060   -3.1470 H   0  0  0  0  0
   -2.6130   -1.2180   -0.7250 H   0  0  0  0  0
   -2.7900   -2.0240    0.8520 H   0  0  0  0  0
   -2.4920    0.2030    1.9720 H   0  0  0  0  0
   -2.4510    0.9700    0.3660 H   0  0  0  0  0
   -8.1880    0.2130    0.8420 H   0  0  0  0  0
   -7.0080   -0.8700    2.7130 H   0  0  0  0  0
   -4.5470   -0.9090    2.7580 H   0  0  0  0  0
   -4.4450    1.2230   -0.9340 H   0  0  0  0  0
   -6.9060    1.2580   -0.9820 H   0  0  0  0  0
  1  2  1  0  0  0
  1  6  2  0  0  0
  1  7  1  0  0  0
  2  3  2  0  0  0
  3  4  1  0  0  0
  3  8  1  0  0  0
  4  5  2  0  0  0
  5  6  1  0  0  0
  5  9  1  0  0  0
  6 16  1  0  0  0
  7 26  1  0  0  0
  7 34  1  0  0  0
  8 35  1  0  0  0
  8 36  1  0  0  0
  9 10  1  0  0  0
  9 37  1  0  0  0
  9 38  1  0  0  0
 10 39  1  0  0  0
 10 40  1  0  0  0
 10 41  1  0  0  0
 11 12  2  0  0  0
 11 16  1  0  0  0
 11 42  1  0  0  0
 12 13  1  0  0  0
 12 43  1  0  0  0
 13 14  2  0  0  0
 13 17  1  0  0  0
 14 15  1  0  0  0
 14 20  1  0  0  0
 15 16  2  0  0  0
 15 44  1  0  0  0
 17 18  1  0  0  0
 17 45  1  0  0  0
 17 46  1  0  0  0
 18 19  1  0  0  0
 18 47  1  0  0  0
 18 48  1  0  0  0
 19 20  1  0  0  0
 19 49  1  0  0  0
 19 50  1  0  0  0
 20 21  1  0  0  0
 21 22  1  0  0  0
 21 51  1  0  0  0
 21 52  1  0  0  0
 22 23  1  0  0  0
 22 53  1  0  0  0
 22 54  1  0  0  0
 23 24  1  0  0  0
 23 55  1  0  0  0
 23 56  1  0  0  0
 24 25  1  0  0  0
 25 57  1  0  0  0
 25 58  1  0  0  0
 25 59  1  0  0  0
 26 27  1  0  0  0
 26 60  1  0  0  0
 26 61  1  0  0  0
 27 31  1  0  0  0
 27 62  1  0  0  0
 27 63  1  0  0  0
 28 29  1  0  0  0
 28 33  2  0  0  0
 28 64  1  0  0  0
 29 30  2  0  0  0
 29 65  1  0  0  0
 30 31  1  0  0  0
 30 66  1  0  0  0
 31 32  2  0  0  0
 32 33  1  0  0  0
 32 67  1  0  0  0
 33 68  1  0  0  0
M  END
$$$$
