6VR
  CCTOOLS-0919241043

 65 67  0  0  1  0  0  0  0  0999 V2000
    1.1910    2.3630   -1.1920 C   0  0  0  0  0
    3.2450    1.4520   -0.0120 C   0  0  0  0  0
    3.6450    1.9230    1.3890 C   0  0  0  0  0
    5.1620    1.7920    1.5490 C   0  0  0  0  0
   -1.0590    2.2240    0.7400 C   0  0  0  0  0
   -3.1340    1.2570    0.5020 C   0  0  0  0  0
   -1.6670   -2.5460   -0.0190 C   0  0  0  0  0
   -0.8500   -3.8080   -0.1120 C   0  0  0  0  0
    0.2170   -5.6880    0.3740 C   0  0  0  0  0
   -5.2810    0.6180    1.5640 C   0  0  0  0  0
    0.2170    0.4010   -2.3940 C   0  0  0  0  0
    1.1620    1.5990   -2.5170 C   0  0  0  0  0
    0.6690    2.5260   -3.6300 C   0  0  0  0  0
    1.7880    1.5190   -0.1540 N   0  0  0  0  0
    5.5730    0.3390    1.3030 C   0  0  0  0  0
    5.1690   -0.0640   -0.0500 N   0  0  0  0  0
    3.7110    0.0080   -0.2130 C   0  0  0  0  0
    0.9970    0.8040    0.6710 C   0  0  0  0  0
    1.4920    0.0270    1.4650 O   0  0  0  0  0
   -0.4670    0.9650    0.6110 C   0  0  0  0  0
   -2.3760    2.3230    0.6800 N   0  0  0  0  0
   -2.6270    0.0490    0.3740 N   0  0  0  0  0
   -1.3120   -0.1480    0.4210 C   0  0  0  0  0
   -0.7860   -1.4150    0.2870 N   0  0  0  0  0
   -0.5700   -4.6410    0.9060 C   0  0  0  0  0
    0.3680   -5.4350   -0.9390 C   0  0  0  0  0
   -0.2820   -4.2950   -1.2280 O   0  0  0  0  0
   -4.6300    1.4290    0.4420 C   0  0  0  0  0
   -4.9800    2.9090    0.6130 C   0  0  0  0  0
   -5.1460    0.9360   -0.9110 C   0  0  0  0  0
    1.7850    3.2700   -1.3080 H   0  0  0  0  0
    0.1740    2.6290   -0.9030 H   0  0  0  0  0
    3.7130    2.0920   -0.7600 H   0  0  0  0  0
    3.3530    2.9640    1.5200 H   0  0  0  0  0
    3.1440    1.3070    2.1360 H   0  0  0  0  0
    5.6610    2.4380    0.8260 H   0  0  0  0  0
    5.4480    2.0860    2.5590 H   0  0  0  0  0
   -0.4500    3.1030    0.8910 H   0  0  0  0  0
   -2.1710   -2.3670   -0.9690 H   0  0  0  0  0
   -2.4100   -2.6510    0.7720 H   0  0  0  0  0
    0.6180   -6.5320    0.9160 H   0  0  0  0  0
   -4.9130    0.9700    2.5280 H   0  0  0  0  0
   -6.3630    0.7420    1.5210 H   0  0  0  0  0
   -5.0320   -0.4360    1.4420 H   0  0  0  0  0
   -0.8020    0.7570   -2.2400 H   0  0  0  0  0
    0.2600   -0.1910   -3.3080 H   0  0  0  0  0
    0.5190   -0.2150   -1.5470 H   0  0  0  0  0
    2.1650    1.2460   -2.7550 H   0  0  0  0  0
    1.3430    3.3780   -3.7170 H   0  0  0  0  0
    0.6490    1.9810   -4.5740 H   0  0  0  0  0
   -0.3340    2.8780   -3.3910 H   0  0  0  0  0
    6.6540    0.2450    1.4020 H   0  0  0  0  0
    5.0840   -0.3050    2.0340 H   0  0  0  0  0
    5.6380    0.4930   -0.7480 H   0  0  0  0  0
    3.2320   -0.6350    0.5260 H   0  0  0  0  0
    3.4410   -0.3260   -1.2140 H   0  0  0  0  0
    0.1670   -1.5590    0.3940 H   0  0  0  0  0
   -0.8860   -4.5310    1.9330 H   0  0  0  0  0
    0.9160   -6.0450   -1.6410 H   0  0  0  0  0
   -4.5160    3.4870   -0.1860 H   0  0  0  0  0
   -6.0620    3.0330    0.5700 H   0  0  0  0  0
   -4.6120    3.2600    1.5770 H   0  0  0  0  0
   -4.8970   -0.1180   -1.0330 H   0  0  0  0  0
   -6.2280    1.0600   -0.9540 H   0  0  0  0  0
   -4.6820    1.5140   -1.7100 H   0  0  0  0  0
  1 14  1  0  0  0
  1 12  1  0  0  0
  1 31  1  0  0  0
  1 32  1  0  0  0
  2 17  1  0  0  0
  2 14  1  0  0  0
  2 33  1  0  0  0
  3  2  1  0  0  0
  3 34  1  0  0  0
  3 35  1  0  0  0
  4 15  1  0  0  0
  4  3  1  0  0  0
  4 36  1  0  0  0
  4 37  1  0  0  0
  5 20  1  0  0  0
  5 21  2  0  0  0
  5 38  1  0  0  0
  6 22  2  0  0  0
  6 28  1  0  0  0
  7  8  1  0  0  0
  7 39  1  0  0  0
  7 40  1  0  0  0
  8 25  2  0  0  0
  9 41  1  0  0  0
 10 28  1  0  0  0
 10 42  1  0  0  0
 10 43  1  0  0  0
 10 44  1  0  0  0
 11 45  1  0  0  0
 11 46  1  0  0  0
 11 47  1  0  0  0
 12 13  1  0  0  0
 12 11  1  0  0  0
 12 48  1  0  0  0
 13 49  1  0  0  0
 13 50  1  0  0  0
 13 51  1  0  0  0
 14 18  1  0  0  0
 15 16  1  0  0  0
 15 52  1  0  0  0
 15 53  1  0  0  0
 16 17  1  0  0  0
 16 54  1  0  0  0
 17 55  1  0  0  0
 17 56  1  0  0  0
 18 20  1  0  0  0
 19 18  2  0  0  0
 20 23  2  0  0  0
 21  6  1  0  0  0
 23 24  1  0  0  0
 23 22  1  0  0  0
 24  7  1  0  0  0
 24 57  1  0  0  0
 25  9  1  0  0  0
 25 58  1  0  0  0
 26  9  2  0  0  0
 26 59  1  0  0  0
 27  8  1  0  0  0
 27 26  1  0  0  0
 28 30  1  0  0  0
 29 28  1  0  0  0
 29 60  1  0  0  0
 29 61  1  0  0  0
 29 62  1  0  0  0
 30 63  1  0  0  0
 30 64  1  0  0  0
 30 65  1  0  0  0
M  END
$$$$
