6VS
  CCTOOLS-0919241043

 83 85  0  0  1  0  0  0  0  0999 V2000
   -1.8750    3.6850    0.1320 C   0  0  0  0  0
   -2.8780    2.5290    0.1360 C   0  0  0  0  0
   -2.8730    0.0860    0.4470 C   0  0  0  0  0
   -0.7260   -1.1930    0.6980 C   0  0  0  0  0
   -0.5770   -1.9160   -2.5050 C   0  0  0  0  0
    1.4290   -2.1350    0.0600 C   0  0  0  0  0
    1.7120   -2.6980    1.4540 C   0  0  0  0  0
    3.8240   -1.5150    1.5660 C   0  0  0  0  0
    4.2650    0.4360    0.0990 C   0  0  0  0  0
   -2.2650    7.3570   -0.3890 C   0  0  0  0  0
   -1.6770    6.0780   -0.1430 O   0  0  0  0  0
   -2.6130    4.9980   -0.1390 C   0  0  0  0  0
   -2.1720    1.2720    0.3960 N   0  0  0  0  0
   -4.1990    0.0780    0.3560 N   0  0  0  0  0
   -4.8720   -1.0530    0.4040 C   0  0  0  0  0
   -4.2760   -2.2210    0.5440 N   0  0  0  0  0
   -2.9610   -2.3120    0.6430 C   0  0  0  0  0
   -2.1960   -1.1430    0.5920 C   0  0  0  0  0
   -0.1530   -0.5130    1.5280 O   0  0  0  0  0
   -0.0180   -1.9910   -0.1250 N   0  0  0  0  0
   -0.6930   -2.7140   -1.2050 C   0  0  0  0  0
   -1.1900   -2.7190   -3.6540 C   0  0  0  0  0
   -1.3220   -0.5880   -2.3560 C   0  0  0  0  0
    3.1620   -2.8230    1.6480 N   0  0  0  0  0
    3.6040   -0.9160    0.1750 C   0  0  0  0  0
    2.1010   -0.7660   -0.0780 C   0  0  0  0  0
    3.6520    1.4290    0.4290 O   0  0  0  0  0
    5.5360    0.5410   -0.3350 N   0  0  0  0  0
    6.2620   -0.6330   -0.8440 C   0  0  0  0  0
    7.6170   -0.7100   -0.1300 C   0  0  0  0  0
    8.2840    0.5490   -0.2490 O   0  0  0  0  0
    7.5950    1.6370    0.3720 C   0  0  0  0  0
    6.2370    1.8350   -0.3210 C   0  0  0  0  0
   -6.3750   -1.0100    0.2960 C   0  0  0  0  0
   -6.7730   -0.3820   -1.0410 C   0  0  0  0  0
   -6.9320   -2.4330    0.3770 C   0  0  0  0  0
   -6.9450   -0.1730    1.4430 C   0  0  0  0  0
   -1.3800    3.7400    1.1010 H   0  0  0  0  0
   -1.1320    3.5190   -0.6470 H   0  0  0  0  0
   -3.6210    2.6960    0.9150 H   0  0  0  0  0
   -3.3730    2.4740   -0.8330 H   0  0  0  0  0
    0.4740   -1.7210   -2.7180 H   0  0  0  0  0
    1.8260   -2.8130   -0.6940 H   0  0  0  0  0
    1.3020   -2.0260    2.2080 H   0  0  0  0  0
    1.2460   -3.6790    1.5510 H   0  0  0  0  0
    3.4040   -0.8480    2.3190 H   0  0  0  0  0
    4.8920   -1.6370    1.7440 H   0  0  0  0  0
   -2.7540    7.3510   -1.3640 H   0  0  0  0  0
   -3.0020    7.5730    0.3850 H   0  0  0  0  0
   -1.4900    8.1220   -0.3760 H   0  0  0  0  0
   -3.1080    4.9430   -1.1090 H   0  0  0  0  0
   -3.3560    5.1650    0.6400 H   0  0  0  0  0
   -1.2110    1.2740    0.5320 H   0  0  0  0  0
   -2.4840   -3.2740    0.7570 H   0  0  0  0  0
   -1.7450   -2.8450   -0.9520 H   0  0  0  0  0
   -0.2270   -3.6910   -1.3350 H   0  0  0  0  0
   -1.1070   -2.1500   -4.5800 H   0  0  0  0  0
   -0.6590   -3.6650   -3.7590 H   0  0  0  0  0
   -2.2410   -2.9140   -3.4400 H   0  0  0  0  0
   -2.3850   -0.7810   -2.2130 H   0  0  0  0  0
   -0.9320   -0.0470   -1.4940 H   0  0  0  0  0
   -1.1800    0.0110   -3.2560 H   0  0  0  0  0
    3.3720   -3.2810    2.5220 H   0  0  0  0  0
    4.0360   -1.5760   -0.5770 H   0  0  0  0  0
    1.9390   -0.3800   -1.0850 H   0  0  0  0  0
    1.6760   -0.0760    0.6500 H   0  0  0  0  0
    5.6880   -1.5370   -0.6390 H   0  0  0  0  0
    6.4180   -0.5320   -1.9180 H   0  0  0  0  0
    7.4610   -0.9420    0.9240 H   0  0  0  0  0
    8.2260   -1.4900   -0.5890 H   0  0  0  0  0
    7.4390    1.4140    1.4270 H   0  0  0  0  0
    8.1880    2.5460    0.2750 H   0  0  0  0  0
    6.3900    2.1800   -1.3430 H   0  0  0  0  0
    5.6460    2.5660    0.2290 H   0  0  0  0  0
   -6.3670   -0.9780   -1.8580 H   0  0  0  0  0
   -7.8600   -0.3510   -1.1190 H   0  0  0  0  0
   -6.3760    0.6320   -1.0980 H   0  0  0  0  0
   -6.5260   -3.0290   -0.4400 H   0  0  0  0  0
   -6.6490   -2.8810    1.3290 H   0  0  0  0  0
   -8.0190   -2.4020    0.2990 H   0  0  0  0  0
   -8.0320   -0.1430    1.3650 H   0  0  0  0  0
   -6.6620   -0.6210    2.3950 H   0  0  0  0  0
   -6.5480    0.8400    1.3850 H   0  0  0  0  0
  1 38  1  0  0  0
  1 39  1  0  0  0
  2 13  1  0  0  0
  2  1  1  0  0  0
  2 40  1  0  0  0
  2 41  1  0  0  0
  3 13  1  0  0  0
  4 20  1  0  0  0
  5 23  1  0  0  0
  5 22  1  0  0  0
  5 42  1  0  0  0
  6  7  1  0  0  0
  6 43  1  0  0  0
  7 24  1  0  0  0
  7 44  1  0  0  0
  7 45  1  0  0  0
  8 24  1  0  0  0
  8 46  1  0  0  0
  8 47  1  0  0  0
  9 25  1  0  0  0
  9 28  1  0  0  0
 10 48  1  0  0  0
 10 49  1  0  0  0
 10 50  1  0  0  0
 11 10  1  0  0  0
 12  1  1  0  0  0
 12 11  1  0  0  0
 12 51  1  0  0  0
 12 52  1  0  0  0
 13 53  1  0  0  0
 14  3  1  0  0  0
 15 14  2  0  0  0
 16 15  1  0  0  0
 16 17  2  0  0  0
 17 18  1  0  0  0
 17 54  1  0  0  0
 18  3  2  0  0  0
 18  4  1  0  0  0
 19  4  2  0  0  0
 20  6  1  0  0  0
 20 21  1  0  0  0
 21  5  1  0  0  0
 21 55  1  0  0  0
 21 56  1  0  0  0
 22 57  1  0  0  0
 22 58  1  0  0  0
 22 59  1  0  0  0
 23 60  1  0  0  0
 23 61  1  0  0  0
 23 62  1  0  0  0
 24 63  1  0  0  0
 25  8  1  0  0  0
 25 64  1  0  0  0
 26  6  1  0  0  0
 26 25  1  0  0  0
 26 65  1  0  0  0
 26 66  1  0  0  0
 27  9  2  0  0  0
 28 33  1  0  0  0
 29 28  1  0  0  0
 29 30  1  0  0  0
 29 67  1  0  0  0
 29 68  1  0  0  0
 30 31  1  0  0  0
 30 69  1  0  0  0
 30 70  1  0  0  0
 31 32  1  0  0  0
 32 71  1  0  0  0
 32 72  1  0  0  0
 33 32  1  0  0  0
 33 73  1  0  0  0
 33 74  1  0  0  0
 34 35  1  0  0  0
 34 15  1  0  0  0
 34 36  1  0  0  0
 35 75  1  0  0  0
 35 76  1  0  0  0
 35 77  1  0  0  0
 36 78  1  0  0  0
 36 79  1  0  0  0
 36 80  1  0  0  0
 37 34  1  0  0  0
 37 81  1  0  0  0
 37 82  1  0  0  0
 37 83  1  0  0  0
M  END
$$$$
