6VU
  CCTOOLS-0919241043

 77 80  0  0  1  0  0  0  0  0999 V2000
   -2.2190    3.9010    0.5770 C   0  0  0  0  0
   -2.6610    2.5420    0.0310 C   0  0  0  0  0
   -3.0060    1.6120    1.1960 C   0  0  0  0  0
   -2.6190   -0.7650    0.4120 C   0  0  0  0  0
   -4.6300   -1.3910   -0.1140 C   0  0  0  0  0
   -7.0770   -0.0900   -0.0180 C   0  0  0  0  0
   -4.7130   -0.0640    0.3530 C   0  0  0  0  0
   -1.2810   -3.0560   -1.6020 C   0  0  0  0  0
    0.1140   -3.1440   -2.2240 C   0  0  0  0  0
   -2.1380   -4.2190   -2.1070 C   0  0  0  0  0
    3.1710   -0.9120    0.2810 C   0  0  0  0  0
   -1.1160    7.0480   -1.0900 C   0  0  0  0  0
   -1.4620    6.1010   -0.0790 O   0  0  0  0  0
   -1.8750    4.8310   -0.5890 C   0  0  0  0  0
   -3.4280    0.3100    0.6730 N   0  0  0  0  0
   -3.3380   -1.7570   -0.0500 N   0  0  0  0  0
   -5.7980   -2.0490   -0.5240 C   0  0  0  0  0
   -6.9970   -1.4000   -0.4730 C   0  0  0  0  0
   -5.9450    0.5770    0.3980 C   0  0  0  0  0
   -1.1540   -0.7970    0.6150 C   0  0  0  0  0
   -0.5660    0.2100    0.9580 O   0  0  0  0  0
   -0.4720   -1.9420    0.4190 N   0  0  0  0  0
   -1.1660   -3.1320   -0.0780 C   0  0  0  0  0
    0.9640   -1.9970    0.7030 C   0  0  0  0  0
    1.1960   -1.8010    2.2040 C   0  0  0  0  0
    2.6360   -1.8350    2.4860 N   0  0  0  0  0
    3.3390   -0.7470    1.7930 C   0  0  0  0  0
    1.6810   -0.8850   -0.0680 C   0  0  0  0  0
    3.8750    0.2160   -0.4280 C   0  0  0  0  0
    3.2540    1.2000   -0.7690 O   0  0  0  0  0
    5.1960    0.1310   -0.6850 N   0  0  0  0  0
    5.9260    1.2620   -1.2800 C   0  0  0  0  0
    7.1720    1.5340   -0.4290 C   0  0  0  0  0
    7.9060    0.3180   -0.2670 O   0  0  0  0  0
    7.1940   -0.7080    0.4290 C   0  0  0  0  0
    5.9510   -1.0930   -0.3730 C   0  0  0  0  0
   -3.0280    4.3370    1.1630 H   0  0  0  0  0
   -1.3410    3.7710    1.2090 H   0  0  0  0  0
   -3.5390    2.6720   -0.6020 H   0  0  0  0  0
   -1.8520    2.1050   -0.5550 H   0  0  0  0  0
   -2.1280    1.4810    1.8290 H   0  0  0  0  0
   -3.8140    2.0480    1.7820 H   0  0  0  0  0
   -8.0350    0.4080    0.0160 H   0  0  0  0  0
   -1.7470   -2.1120   -1.8840 H   0  0  0  0  0
    0.5480   -4.1200   -2.0080 H   0  0  0  0  0
    0.0400   -3.0100   -3.3030 H   0  0  0  0  0
    0.7480   -2.3630   -1.8040 H   0  0  0  0  0
   -3.1320   -4.1570   -1.6640 H   0  0  0  0  0
   -2.2200   -4.1650   -3.1930 H   0  0  0  0  0
   -1.6730   -5.1630   -1.8250 H   0  0  0  0  0
    3.6020   -1.8630   -0.0310 H   0  0  0  0  0
   -0.2920    6.6580   -1.6870 H   0  0  0  0  0
   -1.9780    7.2250   -1.7340 H   0  0  0  0  0
   -0.8140    7.9850   -0.6230 H   0  0  0  0  0
   -1.0660    4.3940   -1.1750 H   0  0  0  0  0
   -2.7530    4.9610   -1.2210 H   0  0  0  0  0
   -5.7490   -3.0670   -0.8800 H   0  0  0  0  0
   -7.8940   -1.9110   -0.7900 H   0  0  0  0  0
   -6.0150    1.5950    0.7500 H   0  0  0  0  0
   -2.1630   -3.1810    0.3600 H   0  0  0  0  0
   -0.6030   -4.0240    0.2000 H   0  0  0  0  0
    1.3590   -2.9660    0.3980 H   0  0  0  0  0
    0.7880   -0.8380    2.5110 H   0  0  0  0  0
    0.6990   -2.5990    2.7550 H   0  0  0  0  0
    2.8110   -1.8030    3.4800 H   0  0  0  0  0
    4.3990   -0.7800    2.0470 H   0  0  0  0  0
    2.9210    0.2110    2.1030 H   0  0  0  0  0
    1.2590    0.0810    0.2090 H   0  0  0  0  0
    1.5550   -1.0450   -1.1390 H   0  0  0  0  0
    6.2250    1.0110   -2.2980 H   0  0  0  0  0
    5.2890    2.1460   -1.2900 H   0  0  0  0  0
    7.7980    2.2740   -0.9270 H   0  0  0  0  0
    6.8700    1.9100    0.5490 H   0  0  0  0  0
    7.8370   -1.5810    0.5480 H   0  0  0  0  0
    6.8930   -0.3410    1.4100 H   0  0  0  0  0
    5.3290   -1.7670    0.2160 H   0  0  0  0  0
    6.2520   -1.5840   -1.2980 H   0  0  0  0  0
  1 14  1  0  0  0
  1 37  1  0  0  0
  1 38  1  0  0  0
  2  3  1  0  0  0
  2  1  1  0  0  0
  2 39  1  0  0  0
  2 40  1  0  0  0
  3 41  1  0  0  0
  3 42  1  0  0  0
  4 15  1  0  0  0
  4 20  1  0  0  0
  5 16  1  0  0  0
  5  7  2  0  0  0
  6 19  2  0  0  0
  6 43  1  0  0  0
  7 15  1  0  0  0
  8 23  1  0  0  0
  8  9  1  0  0  0
  8 44  1  0  0  0
  9 45  1  0  0  0
  9 46  1  0  0  0
  9 47  1  0  0  0
 10  8  1  0  0  0
 10 48  1  0  0  0
 10 49  1  0  0  0
 10 50  1  0  0  0
 11 27  1  0  0  0
 11 51  1  0  0  0
 12 52  1  0  0  0
 12 53  1  0  0  0
 12 54  1  0  0  0
 13 12  1  0  0  0
 14 13  1  0  0  0
 14 55  1  0  0  0
 14 56  1  0  0  0
 15  3  1  0  0  0
 16  4  2  0  0  0
 17  5  1  0  0  0
 17 57  1  0  0  0
 18 17  2  0  0  0
 18  6  1  0  0  0
 18 58  1  0  0  0
 19  7  1  0  0  0
 19 59  1  0  0  0
 20 21  2  0  0  0
 22 20  1  0  0  0
 22 24  1  0  0  0
 23 22  1  0  0  0
 23 60  1  0  0  0
 23 61  1  0  0  0
 24 25  1  0  0  0
 24 62  1  0  0  0
 25 26  1  0  0  0
 25 63  1  0  0  0
 25 64  1  0  0  0
 26 65  1  0  0  0
 27 26  1  0  0  0
 27 66  1  0  0  0
 27 67  1  0  0  0
 28 24  1  0  0  0
 28 11  1  0  0  0
 28 68  1  0  0  0
 28 69  1  0  0  0
 29 11  1  0  0  0
 29 31  1  0  0  0
 30 29  2  0  0  0
 31 32  1  0  0  0
 32 33  1  0  0  0
 32 70  1  0  0  0
 32 71  1  0  0  0
 33 72  1  0  0  0
 33 73  1  0  0  0
 34 33  1  0  0  0
 35 34  1  0  0  0
 35 74  1  0  0  0
 35 75  1  0  0  0
 36 31  1  0  0  0
 36 35  1  0  0  0
 36 76  1  0  0  0
 36 77  1  0  0  0
M  END
$$$$
