70X
  CCTOOLS-0919241044

 57 59  0  0  1  0  0  0  0  0999 V2000
   -8.4270    0.2050    1.2740 C   0  0  0  0  0
   -7.5010    1.0290    1.8870 C   0  0  0  0  0
   -6.3210    1.3440    1.2400 C   0  0  0  0  0
   -8.1690   -0.3100    0.0170 C   0  0  0  0  0
   -6.9880    0.0040   -0.6300 C   0  0  0  0  0
   -6.0660    0.8340   -0.0200 C   0  0  0  0  0
   -4.7790    1.1780   -0.7250 C   0  0  0  0  0
    0.7600   -1.5410   -0.7720 C   0  0  0  0  0
   -0.2000   -0.6030   -1.0970 C   0  0  0  0  0
   -1.4840   -0.7090   -0.5610 C   0  0  0  0  0
   -1.7890   -1.7650    0.3010 C   0  0  0  0  0
   -0.8210   -2.6950    0.6170 C   0  0  0  0  0
    0.4500   -2.5840    0.0820 C   0  0  0  0  0
   -2.5160    0.2910   -0.9040 C   0  0  0  0  0
    3.6750    1.5000    0.3270 N   0  0  0  0  0
    4.8830    0.9140    0.9340 C   0  0  0  0  0
    4.5110   -0.4600    1.5020 C   0  0  0  0  0
    3.6820   -1.2240    0.5090 C   0  0  0  0  0
    2.9850   -0.6230   -0.4670 N   0  0  0  0  0
    3.0430    0.7450   -0.6460 C   0  0  0  0  0
    2.5280    1.3090   -1.7000 N   0  0  0  0  0
    3.6440   -2.4330    0.5900 O   0  0  0  0  0
    2.1450   -1.4310   -1.3540 C   0  0  0  0  0
    5.9710    0.7550   -0.1300 C   0  0  0  0  0
    5.3890    1.8190    2.0590 C   0  0  0  0  0
    6.3340    2.1290   -0.6970 C   0  0  0  0  0
    7.2120    0.1190    0.4990 C   0  0  0  0  0
   -2.2480    1.2090   -1.6540 O   0  0  0  0  0
   -3.7560    0.1860   -0.3850 N   0  0  0  0  0
   -9.3490   -0.0410    1.7790 H   0  0  0  0  0
   -7.7010    1.4270    2.8710 H   0  0  0  0  0
   -5.5980    1.9880    1.7180 H   0  0  0  0  0
   -8.8900   -0.9570   -0.4600 H   0  0  0  0  0
   -6.7870   -0.3980   -1.6120 H   0  0  0  0  0
   -4.9440    1.1750   -1.8030 H   0  0  0  0  0
   -4.4450    2.1670   -0.4110 H   0  0  0  0  0
    0.0430    0.2110   -1.7630 H   0  0  0  0  0
   -2.7810   -1.8520    0.7190 H   0  0  0  0  0
   -1.0560   -3.5110    1.2830 H   0  0  0  0  0
    1.2050   -3.3150    0.3330 H   0  0  0  0  0
    5.4210   -1.0190    1.7190 H   0  0  0  0  0
    3.9400   -0.3280    2.4200 H   0  0  0  0  0
    2.5780    2.2710   -1.8090 H   0  0  0  0  0
    2.5760   -2.4270   -1.4560 H   0  0  0  0  0
    2.0910   -0.9570   -2.3350 H   0  0  0  0  0
    5.6030    0.1170   -0.9330 H   0  0  0  0  0
    4.6150    1.9190    2.8200 H   0  0  0  0  0
    6.2820    1.3810    2.5040 H   0  0  0  0  0
    5.6300    2.8020    1.6540 H   0  0  0  0  0
    6.7880    2.7370    0.0870 H   0  0  0  0  0
    7.0410    2.0090   -1.5180 H   0  0  0  0  0
    5.4330    2.6210   -1.0620 H   0  0  0  0  0
    6.9530   -0.8600    0.9030 H   0  0  0  0  0
    7.9870    0.0060   -0.2590 H   0  0  0  0  0
    7.5800    0.7570    1.3030 H   0  0  0  0  0
   -3.9700   -0.5460    0.2130 H   0  0  0  0  0
    3.3380    2.3690    0.5990 H   0  0  0  0  0
  1 30  1  0  0  0
  2  1  2  0  0  0
  2 31  1  0  0  0
  3  2  1  0  0  0
  3 32  1  0  0  0
  4  1  1  0  0  0
  4 33  1  0  0  0
  5  4  2  0  0  0
  5 34  1  0  0  0
  6  3  2  0  0  0
  6  5  1  0  0  0
  7  6  1  0  0  0
  7 35  1  0  0  0
  7 36  1  0  0  0
  8  9  1  0  0  0
  9 10  2  0  0  0
  9 37  1  0  0  0
 10 14  1  0  0  0
 11 10  1  0  0  0
 11 38  1  0  0  0
 12 11  2  0  0  0
 12 39  1  0  0  0
 13  8  2  0  0  0
 13 12  1  0  0  0
 13 40  1  0  0  0
 14 28  2  0  0  0
 14 29  1  0  0  0
 15 16  1  0  0  0
 15 57  1  0  0  0
 16 24  1  0  0  0
 17 16  1  0  0  0
 17 41  1  0  0  0
 17 42  1  0  0  0
 18 19  1  0  0  0
 18 17  1  0  0  0
 19 20  1  0  0  0
 20 15  1  0  0  0
 21 20  2  0  0  0
 21 43  1  0  0  0
 22 18  2  0  0  0
 23 19  1  0  0  0
 23  8  1  0  0  0
 23 44  1  0  0  0
 23 45  1  0  0  0
 24 27  1  0  0  0
 24 26  1  0  0  0
 24 46  1  0  0  0
 25 16  1  0  0  0
 25 47  1  0  0  0
 25 48  1  0  0  0
 25 49  1  0  0  0
 26 50  1  0  0  0
 26 51  1  0  0  0
 26 52  1  0  0  0
 27 53  1  0  0  0
 27 54  1  0  0  0
 27 55  1  0  0  0
 29  7  1  0  0  0
 29 56  1  0  0  0
M  END
$$$$
