70Y
  CCTOOLS-0919241044

 61 64  0  0  1  0  0  0  0  0999 V2000
    5.3540    2.4920   -0.7580 C   0  0  0  0  0
    6.3040    3.2710   -0.1240 C   0  0  0  0  0
    6.9480    2.7940    1.0020 C   0  0  0  0  0
    6.6420    1.5400    1.4950 C   0  0  0  0  0
   -6.8950    1.4660    0.3260 C   0  0  0  0  0
    5.6910    0.7620    0.8620 C   0  0  0  0  0
    5.0480    1.2370   -0.2650 C   0  0  0  0  0
    2.8420    0.0600    0.0070 C   0  0  0  0  0
    4.0070    0.3920   -0.9530 C   0  0  0  0  0
    3.3860   -1.9390   -1.0430 C   0  0  0  0  0
   -3.9770   -0.9120    0.3380 C   0  0  0  0  0
   -4.7300    1.1270   -0.8740 C   0  0  0  0  0
   -4.8910   -0.3890   -0.7340 C   0  0  0  0  0
   -5.3590    1.5950   -2.1880 C   0  0  0  0  0
   -0.2280   -3.7960    0.1570 C   0  0  0  0  0
    0.9750   -3.2290   -0.2150 C   0  0  0  0  0
    1.2190   -1.8870    0.0460 C   0  0  0  0  0
    0.2510   -1.1190    0.6810 C   0  0  0  0  0
   -5.2570    3.3440    0.1500 C   0  0  0  0  0
   -3.2880    1.4360   -0.8740 N   0  0  0  0  0
   -2.8790   -0.2530    0.7370 N   0  0  0  0  0
   -2.5610    0.9890    0.2160 C   0  0  0  0  0
   -1.6100    1.7130    0.7340 N   0  0  0  0  0
   -4.2460   -1.9690    0.8680 O   0  0  0  0  0
   -2.0000   -0.8600    1.7400 C   0  0  0  0  0
   -5.4090    1.8300    0.3030 C   0  0  0  0  0
   -0.9500   -1.6920    1.0510 C   0  0  0  0  0
   -1.1920   -3.0270    0.7840 C   0  0  0  0  0
    2.4370   -1.3100   -0.3290 N   0  0  0  0  0
    4.5620   -1.0160   -1.2740 C   0  0  0  0  0
    3.3110   -3.0820   -1.4440 O   0  0  0  0  0
    4.8470    2.8660   -1.6350 H   0  0  0  0  0
    6.5440    4.2510   -0.5090 H   0  0  0  0  0
    7.6920    3.4020    1.4970 H   0  0  0  0  0
    7.1460    1.1670    2.3750 H   0  0  0  0  0
   -7.3790    1.9660    1.1650 H   0  0  0  0  0
   -7.3610    1.7860   -0.6060 H   0  0  0  0  0
   -7.0030    0.3870    0.4350 H   0  0  0  0  0
    5.4510   -0.2190    1.2470 H   0  0  0  0  0
    3.1800    0.1100    1.0420 H   0  0  0  0  0
    2.0140    0.7500   -0.1530 H   0  0  0  0  0
    3.6410    0.8830   -1.8550 H   0  0  0  0  0
   -4.6450   -0.8670   -1.6830 H   0  0  0  0  0
   -5.9230   -0.6200   -0.4730 H   0  0  0  0  0
   -5.2320    2.6730   -2.2880 H   0  0  0  0  0
   -4.8730    1.0920   -3.0230 H   0  0  0  0  0
   -6.4220    1.3530   -2.1870 H   0  0  0  0  0
   -0.4190   -4.8400   -0.0450 H   0  0  0  0  0
    1.7250   -3.8290   -0.7080 H   0  0  0  0  0
    0.4380   -0.0760    0.8860 H   0  0  0  0  0
   -5.8010    3.6770   -0.7340 H   0  0  0  0  0
   -5.6600    3.8410    1.0330 H   0  0  0  0  0
   -4.2010    3.5950    0.0430 H   0  0  0  0  0
   -2.8720    1.9270   -1.5990 H   0  0  0  0  0
   -1.4020    2.5820    0.3560 H   0  0  0  0  0
   -1.5180   -0.0750    2.3220 H   0  0  0  0  0
   -2.5890   -1.4940    2.4030 H   0  0  0  0  0
   -4.9420    1.5100    1.2350 H   0  0  0  0  0
   -2.1340   -3.4710    1.0700 H   0  0  0  0  0
    4.8910   -1.0680   -2.3120 H   0  0  0  0  0
    5.3810   -1.2660   -0.6000 H   0  0  0  0  0
  1  7  1  0  0  0
  1 32  1  0  0  0
  2  1  2  0  0  0
  2  3  1  0  0  0
  2 33  1  0  0  0
  3  4  2  0  0  0
  3 34  1  0  0  0
  4  6  1  0  0  0
  4 35  1  0  0  0
  5 36  1  0  0  0
  5 37  1  0  0  0
  5 38  1  0  0  0
  6 39  1  0  0  0
  7  9  1  0  0  0
  7  6  2  0  0  0
  8  9  1  0  0  0
  8 40  1  0  0  0
  8 41  1  0  0  0
  9 30  1  0  0  0
  9 42  1  0  0  0
 10 30  1  0  0  0
 11 21  1  0  0  0
 11 13  1  0  0  0
 12 26  1  0  0  0
 13 12  1  0  0  0
 13 43  1  0  0  0
 13 44  1  0  0  0
 14 12  1  0  0  0
 14 45  1  0  0  0
 14 46  1  0  0  0
 14 47  1  0  0  0
 15 16  2  0  0  0
 15 48  1  0  0  0
 16 17  1  0  0  0
 16 49  1  0  0  0
 17 29  1  0  0  0
 18 17  2  0  0  0
 18 50  1  0  0  0
 19 51  1  0  0  0
 19 52  1  0  0  0
 19 53  1  0  0  0
 20 12  1  0  0  0
 20 54  1  0  0  0
 21 22  1  0  0  0
 22 20  1  0  0  0
 23 22  2  0  0  0
 23 55  1  0  0  0
 24 11  2  0  0  0
 25 21  1  0  0  0
 25 27  1  0  0  0
 25 56  1  0  0  0
 25 57  1  0  0  0
 26  5  1  0  0  0
 26 19  1  0  0  0
 26 58  1  0  0  0
 27 18  1  0  0  0
 28 27  2  0  0  0
 28 15  1  0  0  0
 28 59  1  0  0  0
 29 10  1  0  0  0
 29  8  1  0  0  0
 30 60  1  0  0  0
 30 61  1  0  0  0
 31 10  2  0  0  0
M  END
$$$$
