72X
  CCTOOLS-0919241044

 81 83  0  0  1  0  0  0  0  0999 V2000
    2.4050   -0.0910    1.0600 C   0  0  0  0  0
    2.3880   -0.5770    2.4040 O   0  0  0  0  0
    3.5210    0.9090    0.9020 C   0  0  0  0  0
    4.6650    0.7960    1.6700 C   0  0  0  0  0
    3.4040    1.9360   -0.0160 C   0  0  0  0  0
    5.6890    1.7130    1.5250 C   0  0  0  0  0
    4.4290    2.8540   -0.1610 C   0  0  0  0  0
    5.5710    2.7430    0.6120 C   0  0  0  0  0
    2.6280   -1.2600    0.0980 C   0  0  0  0  0
    3.9650   -1.9340    0.4140 C   0  0  0  0  0
    4.1870   -3.1020   -0.5480 C   0  0  0  0  0
    5.5240   -3.7760   -0.2310 C   0  0  0  0  0
    5.7320   -4.8670   -1.1300 O   0  0  0  0  0
    6.9600   -5.5680   -0.9190 C   0  0  0  0  0
   -4.3130    0.0610   -1.4320 C   0  0  0  0  0
   -3.8650    0.6350   -2.7780 C   0  0  0  0  0
   -5.7200    0.5660   -1.1060 C   0  0  0  0  0
   -2.4700    0.2490   -3.0340 N   0  0  0  0  0
   -6.2180   -0.1050    0.1760 C   0  0  0  0  0
   -7.5710    0.4900    0.5700 C   0  0  0  0  0
   -8.0690   -0.1800    1.8520 C   0  0  0  0  0
   -8.2220   -1.6840    1.6150 C   0  0  0  0  0
   -6.3710   -1.6080   -0.0610 C   0  0  0  0  0
   -6.8690   -2.2790    1.2210 C   0  0  0  0  0
   -3.3850    0.4930   -0.3840 N   0  0  0  0  0
   -2.2530   -0.2040   -0.1570 C   0  0  0  0  0
   -2.0480   -1.2420   -0.7560 O   0  0  0  0  0
   -1.3490    0.2510    0.7330 N   0  0  0  0  0
   -0.4770    2.4400    1.3630 C   0  0  0  0  0
    0.8460    1.7480    1.7030 C   0  0  0  0  0
    1.0680    0.5820    0.7430 C   0  0  0  0  0
   -0.0630   -0.4370    0.9110 C   0  0  0  0  0
   -1.6290    1.4460    1.5400 C   0  0  0  0  0
   -2.0050    0.7830   -4.3210 C   0  0  0  0  0
    4.2820    4.1440   -1.3140 CL  0  0  0  0  0
    1.6930   -1.2270    2.5780 H   0  0  0  0  0
    4.7580   -0.0090    2.3840 H   0  0  0  0  0
    2.5120    2.0220   -0.6190 H   0  0  0  0  0
    6.5820    1.6240    2.1260 H   0  0  0  0  0
    6.3710    3.4600    0.4990 H   0  0  0  0  0
    1.8210   -1.9840    0.2120 H   0  0  0  0  0
    2.6410   -0.8900   -0.9270 H   0  0  0  0  0
    4.7720   -1.2100    0.3000 H   0  0  0  0  0
    3.9510   -2.3040    1.4390 H   0  0  0  0  0
    3.3800   -3.8260   -0.4330 H   0  0  0  0  0
    4.2010   -2.7320   -1.5730 H   0  0  0  0  0
    6.3320   -3.0520   -0.3460 H   0  0  0  0  0
    5.5110   -4.1460    0.7940 H   0  0  0  0  0
    7.0420   -6.3810   -1.6400 H   0  0  0  0  0
    7.7970   -4.8820   -1.0470 H   0  0  0  0  0
    6.9760   -5.9760    0.0920 H   0  0  0  0  0
   -4.3200   -1.0270   -1.4850 H   0  0  0  0  0
   -4.5020    0.2430   -3.5700 H   0  0  0  0  0
   -3.9420    1.7220   -2.7530 H   0  0  0  0  0
   -5.6950    1.6460   -0.9650 H   0  0  0  0  0
   -6.3930    0.3220   -1.9280 H   0  0  0  0  0
   -1.8690    0.5450   -2.2810 H   0  0  0  0  0
   -5.4990    0.0650    0.9780 H   0  0  0  0  0
   -7.4620    1.5620    0.7390 H   0  0  0  0  0
   -8.2900    0.3200   -0.2310 H   0  0  0  0  0
   -7.3500   -0.0100    2.6540 H   0  0  0  0  0
   -9.0330    0.2440    2.1330 H   0  0  0  0  0
   -8.5770   -2.1610    2.5290 H   0  0  0  0  0
   -8.9410   -1.8540    0.8140 H   0  0  0  0  0
   -7.0900   -1.7780   -0.8620 H   0  0  0  0  0
   -5.4070   -2.0320   -0.3420 H   0  0  0  0  0
   -6.1500   -2.1090    2.0230 H   0  0  0  0  0
   -6.9780   -3.3500    1.0520 H   0  0  0  0  0
   -3.5850    1.2800    0.1470 H   0  0  0  0  0
   -0.6260    3.2880    2.0330 H   0  0  0  0  0
   -0.4490    2.7910    0.3320 H   0  0  0  0  0
    1.6650    2.4600    1.6020 H   0  0  0  0  0
    0.8100    1.3790    2.7280 H   0  0  0  0  0
    1.0810    0.9520   -0.2820 H   0  0  0  0  0
   -0.0170   -0.8730    1.9100 H   0  0  0  0  0
    0.0380   -1.2220    0.1620 H   0  0  0  0  0
   -2.5600    1.9030    1.2050 H   0  0  0  0  0
   -1.7130    1.1670    2.5900 H   0  0  0  0  0
   -0.9700    0.4820   -4.4860 H   0  0  0  0  0
   -2.6290    0.3920   -5.1240 H   0  0  0  0  0
   -2.0690    1.8710   -4.3080 H   0  0  0  0  0
  1  2  1  0  0  0
  1  3  1  0  0  0
  1  9  1  0  0  0
  1 31  1  0  0  0
  2 36  1  0  0  0
  3  4  2  0  0  0
  3  5  1  0  0  0
  4  6  1  0  0  0
  4 37  1  0  0  0
  5  7  2  0  0  0
  5 38  1  0  0  0
  6  8  2  0  0  0
  6 39  1  0  0  0
  7  8  1  0  0  0
  7 35  1  0  0  0
  8 40  1  0  0  0
  9 10  1  0  0  0
  9 41  1  0  0  0
  9 42  1  0  0  0
 10 11  1  0  0  0
 10 43  1  0  0  0
 10 44  1  0  0  0
 11 12  1  0  0  0
 11 45  1  0  0  0
 11 46  1  0  0  0
 12 13  1  0  0  0
 12 47  1  0  0  0
 12 48  1  0  0  0
 13 14  1  0  0  0
 14 49  1  0  0  0
 14 50  1  0  0  0
 14 51  1  0  0  0
 15 16  1  0  0  0
 15 17  1  0  0  0
 15 25  1  0  0  0
 15 52  1  0  0  0
 16 18  1  0  0  0
 16 53  1  0  0  0
 16 54  1  0  0  0
 17 19  1  0  0  0
 17 55  1  0  0  0
 17 56  1  0  0  0
 18 34  1  0  0  0
 18 57  1  0  0  0
 19 20  1  0  0  0
 19 23  1  0  0  0
 19 58  1  0  0  0
 20 21  1  0  0  0
 20 59  1  0  0  0
 20 60  1  0  0  0
 21 22  1  0  0  0
 21 61  1  0  0  0
 21 62  1  0  0  0
 22 24  1  0  0  0
 22 63  1  0  0  0
 22 64  1  0  0  0
 23 24  1  0  0  0
 23 65  1  0  0  0
 23 66  1  0  0  0
 24 67  1  0  0  0
 24 68  1  0  0  0
 25 26  1  0  0  0
 25 69  1  0  0  0
 26 27  2  0  0  0
 26 28  1  0  0  0
 28 32  1  0  0  0
 28 33  1  0  0  0
 29 30  1  0  0  0
 29 33  1  0  0  0
 29 70  1  0  0  0
 29 71  1  0  0  0
 30 31  1  0  0  0
 30 72  1  0  0  0
 30 73  1  0  0  0
 31 32  1  0  0  0
 31 74  1  0  0  0
 32 75  1  0  0  0
 32 76  1  0  0  0
 33 77  1  0  0  0
 33 78  1  0  0  0
 34 79  1  0  0  0
 34 80  1  0  0  0
 34 81  1  0  0  0
M  END
$$$$
