74U
  CCTOOLS-0919241044

 38 41  0  0  0  0  0  0  0  0999 V2000
    1.8220    0.0060    0.0070 C   0  0  0  0  0
    1.3430   -2.2520   -0.0010 C   0  0  0  0  0
    1.7430   -3.5960   -0.0090 C   0  0  0  0  0
   -0.5580   -4.2710   -0.0050 C   0  0  0  0  0
    2.8390    1.0850    0.0020 C   0  0  0  0  0
    5.1380    1.7760   -0.0090 C   0  0  0  0  0
    3.3920    3.4210   -0.0070 C   0  0  0  0  0
   -4.4050    1.3900    1.1290 C   0  0  0  0  0
   -5.7400    1.5000    0.6770 C   0  0  0  0  0
   -5.6980    1.4910   -0.6680 C   0  0  0  0  0
   -2.1240    1.2030    0.0270 C   0  0  0  0  0
   -1.7510   -0.2140    0.0240 N   0  0  0  0  0
   -0.4200   -0.5760    0.0180 C   0  0  0  0  0
    0.5340    0.3430    0.0130 N   0  0  0  0  0
    2.2310   -1.2490    0.0000 N   0  0  0  0  0
    0.7990   -4.5800   -0.0110 C   0  0  0  0  0
   -0.9820   -2.9740    0.0030 C   0  0  0  0  0
   -0.0390   -1.9410    0.0050 C   0  0  0  0  0
    4.1960    0.7670   -0.0040 C   0  0  0  0  0
    4.7370    3.1000   -0.0080 C   0  0  0  0  0
    2.4410    2.4210   -0.0020 C   0  0  0  0  0
   -3.6260    1.3260    0.0340 C   0  0  0  0  0
   -4.4150    1.3830   -1.0510 O   0  0  0  0  0
    2.7930   -3.8510   -0.0150 H   0  0  0  0  0
   -1.2860   -5.0690   -0.0070 H   0  0  0  0  0
    6.1900    1.5310   -0.0100 H   0  0  0  0  0
    3.0850    4.4570   -0.0060 H   0  0  0  0  0
   -4.0730    1.3670    2.1570 H   0  0  0  0  0
   -6.6240    1.5760    1.2930 H   0  0  0  0  0
   -6.5500    1.5590   -1.3270 H   0  0  0  0  0
   -1.7160    1.6850    0.9150 H   0  0  0  0  0
   -1.7240    1.6860   -0.8650 H   0  0  0  0  0
   -2.4390   -0.8970    0.0270 H   0  0  0  0  0
    1.1090   -5.6140   -0.0170 H   0  0  0  0  0
   -2.0370   -2.7470    0.0080 H   0  0  0  0  0
    4.5100   -0.2660   -0.0050 H   0  0  0  0  0
    5.4780    3.8860   -0.0080 H   0  0  0  0  0
    1.3910    2.6730   -0.0020 H   0  0  0  0  0
  1 14  2  0  0  0
  1  5  1  0  0  0
  2 15  2  0  0  0
  2 18  1  0  0  0
  3  2  1  0  0  0
  3 24  1  0  0  0
  4 17  2  0  0  0
  4 25  1  0  0  0
  5 19  2  0  0  0
  5 21  1  0  0  0
  6 20  2  0  0  0
  6 26  1  0  0  0
  7 20  1  0  0  0
  7 27  1  0  0  0
  8  9  1  0  0  0
  8 28  1  0  0  0
  9 29  1  0  0  0
 10  9  2  0  0  0
 10 30  1  0  0  0
 11 22  1  0  0  0
 11 31  1  0  0  0
 11 32  1  0  0  0
 12 11  1  0  0  0
 12 33  1  0  0  0
 13 14  1  0  0  0
 13 12  1  0  0  0
 15  1  1  0  0  0
 16  3  2  0  0  0
 16  4  1  0  0  0
 16 34  1  0  0  0
 17 18  1  0  0  0
 17 35  1  0  0  0
 18 13  2  0  0  0
 19  6  1  0  0  0
 19 36  1  0  0  0
 20 37  1  0  0  0
 21  7  2  0  0  0
 21 38  1  0  0  0
 22  8  2  0  0  0
 23 22  1  0  0  0
 23 10  1  0  0  0
M  END
$$$$
