74V
  CCTOOLS-0919241044

 50 52  0  0  1  0  0  0  0  0999 V2000
   -1.9910   -0.8280    0.5200 N   0  0  0  0  0
   -3.1640    0.0460    0.4350 C   0  0  0  0  0
   -2.7250    1.5050    0.5850 C   0  0  0  0  0
   -3.9470    2.4160    0.4350 C   0  0  0  0  0
   -4.6040    2.1600   -0.9230 C   0  0  0  0  0
   -0.9840   -0.6920   -0.3650 C   0  0  0  0  0
   -0.0830   -3.0220   -0.4390 C   0  0  0  0  0
    2.1880   -3.3830   -0.3370 C   0  0  0  0  0
    3.1360    0.5980    0.0340 C   0  0  0  0  0
    3.1740    2.1040    0.0900 C   0  0  0  0  0
    3.0410    2.8530    1.2000 C   0  0  0  0  0
    3.3240    4.2000   -0.5370 C   0  0  0  0  0
   -1.1230   -1.2940    2.7590 C   0  0  0  0  0
   -1.9110   -1.8470    1.5690 C   0  0  0  0  0
   -5.0070    0.7510   -1.0160 N   0  0  0  0  0
   -3.8440   -0.1410   -0.9230 C   0  0  0  0  0
   -1.0020    0.2180   -1.1710 O   0  0  0  0  0
    0.1410   -1.6460   -0.3550 C   0  0  0  0  0
    0.9540   -3.8420   -0.4270 N   0  0  0  0  0
    3.3310   -4.3640   -0.3280 C   0  0  0  0  0
    2.4530   -2.0950   -0.2550 N   0  0  0  0  0
    1.4740   -1.1960   -0.2600 C   0  0  0  0  0
    1.7570    0.1510   -0.1750 N   0  0  0  0  0
    3.1380    4.2040    0.7960 C   0  0  0  0  0
    3.3500    2.9250   -0.9570 O   0  0  0  0  0
   -3.8640   -0.2070    1.2310 H   0  0  0  0  0
   -2.2790    1.6530    1.5680 H   0  0  0  0  0
   -1.9930    1.7460   -0.1870 H   0  0  0  0  0
   -4.6600    2.2010    1.2310 H   0  0  0  0  0
   -3.6340    3.4580    0.4980 H   0  0  0  0  0
   -5.4830    2.7960   -1.0260 H   0  0  0  0  0
   -3.8950    2.3880   -1.7180 H   0  0  0  0  0
   -1.0880   -3.4110   -0.5090 H   0  0  0  0  0
    3.7600    0.2500   -0.7890 H   0  0  0  0  0
    3.5130    0.1900    0.9720 H   0  0  0  0  0
    2.8890    2.4910    2.2060 H   0  0  0  0  0
    3.4380    5.0740   -1.1610 H   0  0  0  0  0
   -1.0640   -2.0520    3.5390 H   0  0  0  0  0
   -0.1180   -1.0260    2.4350 H   0  0  0  0  0
   -1.6270   -0.4090    3.1480 H   0  0  0  0  0
   -2.9170   -2.1150    1.8930 H   0  0  0  0  0
   -1.4080   -2.7320    1.1800 H   0  0  0  0  0
   -5.6940    0.5240   -0.3120 H   0  0  0  0  0
   -3.1380    0.0980   -1.7180 H   0  0  0  0  0
   -4.1700   -1.1760   -1.0260 H   0  0  0  0  0
    3.5530   -4.6540    0.6990 H   0  0  0  0  0
    3.0570   -5.2470   -0.9050 H   0  0  0  0  0
    4.2120   -3.9000   -0.7720 H   0  0  0  0  0
    1.0430    0.8030   -0.2530 H   0  0  0  0  0
    3.0760    5.0730    1.4340 H   0  0  0  0  0
  1 14  1  0  0  0
  1  6  1  0  0  0
  2 16  1  0  0  0
  2  1  1  0  0  0
  2 26  1  0  0  0
  3  2  1  0  0  0
  3 27  1  0  0  0
  3 28  1  0  0  0
  4  5  1  0  0  0
  4  3  1  0  0  0
  4 29  1  0  0  0
  4 30  1  0  0  0
  5 15  1  0  0  0
  5 31  1  0  0  0
  5 32  1  0  0  0
  6 18  1  0  0  0
  7 18  2  0  0  0
  7 19  1  0  0  0
  7 33  1  0  0  0
  8 21  1  0  0  0
  8 20  1  0  0  0
  9 10  1  0  0  0
  9 34  1  0  0  0
  9 35  1  0  0  0
 10 11  2  0  0  0
 11 24  1  0  0  0
 11 36  1  0  0  0
 12 24  2  0  0  0
 12 37  1  0  0  0
 13 38  1  0  0  0
 13 39  1  0  0  0
 13 40  1  0  0  0
 14 13  1  0  0  0
 14 41  1  0  0  0
 14 42  1  0  0  0
 15 16  1  0  0  0
 15 43  1  0  0  0
 16 44  1  0  0  0
 16 45  1  0  0  0
 17  6  2  0  0  0
 18 22  1  0  0  0
 19  8  2  0  0  0
 20 46  1  0  0  0
 20 47  1  0  0  0
 20 48  1  0  0  0
 22 23  1  0  0  0
 22 21  2  0  0  0
 23  9  1  0  0  0
 23 49  1  0  0  0
 24 50  1  0  0  0
 25 10  1  0  0  0
 25 12  1  0  0  0
M  END
$$$$
