74Y
  CCTOOLS-0919241044

 46 48  0  0  0  0  0  0  0  0999 V2000
    2.3800   -1.8260   -0.6570 C   0  0  0  0  0
    1.2450   -1.0090   -0.7100 C   0  0  0  0  0
    1.3220    0.3470   -1.2840 C   0  0  0  0  0
    2.1540    1.0880    1.7270 C   0  0  0  0  0
    2.1060    3.7140   -0.1500 C   0  0  0  0  0
    0.0300   -1.5050   -0.2070 C   0  0  0  0  0
   -2.3460   -1.1860    0.3710 C   0  0  0  0  0
   -5.1120    1.0390   -0.6190 C   0  0  0  0  0
   -4.7170    1.5860    0.5450 C   0  0  0  0  0
    0.8890   -4.8910    0.9510 C   0  0  0  0  0
    1.0220   -3.5130    0.3550 C   0  0  0  0  0
    2.2540   -3.0920   -0.1150 C   0  0  0  0  0
    0.6700    0.6270   -2.2710 O   0  0  0  0  0
    2.1150    1.2760   -0.7140 N   0  0  0  0  0
    2.9410    0.8880    0.4080 C   0  0  0  0  0
    2.0010    2.5210    2.0180 C   0  0  0  0  0
    1.1950    3.2920    0.9760 C   0  0  0  0  0
    2.1040    2.6470   -1.2600 C   0  0  0  0  0
   -1.1050   -0.7170   -0.2500 N   0  0  0  0  0
   -3.4240   -0.1490    0.1860 C   0  0  0  0  0
   -4.2790   -0.0790   -0.8500 C   0  0  0  0  0
   -3.6900    0.8650    1.0250 O   0  0  0  0  0
   -0.0340   -2.7240    0.3060 N   0  0  0  0  0
    3.3300   -1.4770   -1.0330 H   0  0  0  0  0
    1.1680    0.6320    1.6310 H   0  0  0  0  0
    2.6930    0.6090    2.5440 H   0  0  0  0  0
    1.7600    4.6620   -0.5600 H   0  0  0  0  0
    3.1200    3.8340    0.2340 H   0  0  0  0  0
   -2.6570   -2.1200   -0.0970 H   0  0  0  0  0
   -5.9150    1.3860   -1.2530 H   0  0  0  0  0
   -5.1510    2.4570    1.0130 H   0  0  0  0  0
    0.6180   -5.6000    0.1690 H   0  0  0  0  0
    1.8390   -5.1870    1.3970 H   0  0  0  0  0
    0.1150   -4.8820    1.7180 H   0  0  0  0  0
    3.1080   -3.7510   -0.0670 H   0  0  0  0  0
    3.8410    1.5030    0.4250 H   0  0  0  0  0
    3.2200   -0.1610    0.3070 H   0  0  0  0  0
    1.5090    2.6270    2.9850 H   0  0  0  0  0
    2.9930    2.9680    2.0880 H   0  0  0  0  0
    0.7550    4.1760    1.4380 H   0  0  0  0  0
    0.4030    2.6540    0.5840 H   0  0  0  0  0
    1.2120    2.7770   -1.8730 H   0  0  0  0  0
    2.9850    2.7860   -1.8860 H   0  0  0  0  0
   -4.3230   -0.7520   -1.6940 H   0  0  0  0  0
   -2.1800   -1.3510    1.4360 H   0  0  0  0  0
   -1.0800    0.1460   -0.6910 H   0  0  0  0  0
  1  2  2  0  0  0
  1 24  1  0  0  0
  2  6  1  0  0  0
  2  3  1  0  0  0
  3 13  2  0  0  0
  4 16  1  0  0  0
  4 15  1  0  0  0
  4 25  1  0  0  0
  4 26  1  0  0  0
  5 18  1  0  0  0
  5 27  1  0  0  0
  5 28  1  0  0  0
  6 19  1  0  0  0
  7 20  1  0  0  0
  7 29  1  0  0  0
  7 45  1  0  0  0
  8  9  2  0  0  0
  8 30  1  0  0  0
  9 31  1  0  0  0
 10 11  1  0  0  0
 10 32  1  0  0  0
 10 33  1  0  0  0
 10 34  1  0  0  0
 11 23  1  0  0  0
 12 11  2  0  0  0
 12  1  1  0  0  0
 12 35  1  0  0  0
 14  3  1  0  0  0
 14 18  1  0  0  0
 15 14  1  0  0  0
 15 36  1  0  0  0
 15 37  1  0  0  0
 16 17  1  0  0  0
 16 38  1  0  0  0
 16 39  1  0  0  0
 17  5  1  0  0  0
 17 40  1  0  0  0
 17 41  1  0  0  0
 18 42  1  0  0  0
 18 43  1  0  0  0
 19  7  1  0  0  0
 19 46  1  0  0  0
 20 21  2  0  0  0
 20 22  1  0  0  0
 21  8  1  0  0  0
 21 44  1  0  0  0
 22  9  1  0  0  0
 23  6  2  0  0  0
M  END
$$$$
