7EJ
  CCTOOLS-0919241028

 82 85  0  0  1  0  0  0  0  0999 V2000
   -2.3390   -3.2940   -0.4860 C   0  0  0  0  0
   -2.5920   -1.9190    0.1370 C   0  0  0  0  0
   -2.9040   -0.9080   -0.9680 C   0  0  0  0  0
   -2.0580    1.3360   -0.1650 C   0  0  0  0  0
   -3.9840    2.2280    0.5390 C   0  0  0  0  0
   -5.6610   -1.0720   -0.1330 C   0  0  0  0  0
   -8.0500   -0.9070   -0.1170 C   0  0  0  0  0
   -6.7310    1.0840    0.0630 C   0  0  0  0  0
   -0.2890    3.5220   -0.0810 C   0  0  0  0  0
   -0.2980    3.6540    1.4430 C   0  0  0  0  0
    1.1260    3.4910    1.9770 C   0  0  0  0  0
   -1.2630   -6.5570    0.9600 C   0  0  0  0  0
   -1.6730   -5.5600    0.0220 O   0  0  0  0  0
   -1.9080   -4.2770    0.6040 C   0  0  0  0  0
   -3.0660    0.4240   -0.3800 N   0  0  0  0  0
   -2.6160    2.4610    0.4100 C   0  0  0  0  0
   -4.2420    0.9670    0.0470 C   0  0  0  0  0
   -5.5680    0.3150   -0.0090 C   0  0  0  0  0
   -6.9010   -1.6740   -0.1890 C   0  0  0  0  0
   -7.9640    0.4680    0.0110 C   0  0  0  0  0
   -0.6400    1.1440   -0.4830 C   0  0  0  0  0
   -0.2260    0.0380   -0.7750 O   0  0  0  0  0
    0.2050    2.1940   -0.4540 N   0  0  0  0  0
   -0.8350    5.0320    1.8320 C   0  0  0  0  0
    1.6180    2.0070   -0.7940 C   0  0  0  0  0
    1.7410    1.6180   -2.2690 C   0  0  0  0  0
    3.1550    1.4100   -2.6060 N   0  0  0  0  0
    3.7320    0.3120   -1.8190 C   0  0  0  0  0
    3.6680    0.6610   -0.3300 C   0  0  0  0  0
    2.2090    0.8920    0.0730 C   0  0  0  0  0
    4.2400   -0.4750    0.4780 C   0  0  0  0  0
    3.5030   -1.3120    0.9530 O   0  0  0  0  0
    5.5710   -0.5600    0.6720 N   0  0  0  0  0
    6.4750    0.5000    0.1990 C   0  0  0  0  0
    7.6060   -0.1520   -0.6060 C   0  0  0  0  0
    8.2000   -1.1910    0.1750 O   0  0  0  0  0
    7.3090   -2.2600    0.5020 C   0  0  0  0  0
    6.1630   -1.7130    1.3680 C   0  0  0  0  0
   -3.2540   -3.6530   -0.9580 H   0  0  0  0  0
   -1.5520   -3.2140   -1.2360 H   0  0  0  0  0
   -3.4370   -1.9810    0.8220 H   0  0  0  0  0
   -1.7040   -1.5990    0.6820 H   0  0  0  0  0
   -2.0840   -0.8900   -1.6860 H   0  0  0  0  0
   -3.8240   -1.1960   -1.4750 H   0  0  0  0  0
   -4.7110    2.9130    0.9510 H   0  0  0  0  0
   -4.7650   -1.6730   -0.1890 H   0  0  0  0  0
   -9.0190   -1.3830   -0.1620 H   0  0  0  0  0
   -6.6650    2.1570    0.1590 H   0  0  0  0  0
   -1.3010    3.6530   -0.4630 H   0  0  0  0  0
    0.3630    4.2850   -0.5080 H   0  0  0  0  0
   -0.9370    2.8810    1.8710 H   0  0  0  0  0
    1.7490    4.3050    1.6070 H   0  0  0  0  0
    1.1100    3.5130    3.0670 H   0  0  0  0  0
    1.5350    2.5390    1.6400 H   0  0  0  0  0
   -0.3340   -6.2460    1.4390 H   0  0  0  0  0
   -2.0370   -6.6840    1.7170 H   0  0  0  0  0
   -1.1040   -7.5020    0.4400 H   0  0  0  0  0
   -0.9930   -3.9180    1.0750 H   0  0  0  0  0
   -2.6960   -4.3570    1.3530 H   0  0  0  0  0
   -2.0890    3.3570    0.7020 H   0  0  0  0  0
   -6.9760   -2.7470   -0.2900 H   0  0  0  0  0
   -8.8650    1.0620    0.0670 H   0  0  0  0  0
   -1.8790    5.1140    1.5310 H   0  0  0  0  0
   -0.7570    5.1610    2.9120 H   0  0  0  0  0
   -0.2510    5.8040    1.3320 H   0  0  0  0  0
    2.1610    2.9340   -0.6150 H   0  0  0  0  0
    1.1850    0.6980   -2.4500 H   0  0  0  0  0
    1.3340    2.4170   -2.8900 H   0  0  0  0  0
    3.2710    1.2460   -3.5940 H   0  0  0  0  0
    3.1670   -0.6020   -2.0020 H   0  0  0  0  0
    4.7710    0.1620   -2.1130 H   0  0  0  0  0
    4.2450    1.5670   -0.1440 H   0  0  0  0  0
    2.1630    1.1830    1.1220 H   0  0  0  0  0
    1.6410   -0.0260   -0.0760 H   0  0  0  0  0
    5.9260    1.1950   -0.4370 H   0  0  0  0  0
    6.8930    1.0350    1.0520 H   0  0  0  0  0
    7.2020   -0.5730   -1.5260 H   0  0  0  0  0
    8.3590    0.5980   -0.8480 H   0  0  0  0  0
    6.9040   -2.6890   -0.4140 H   0  0  0  0  0
    7.8490   -3.0280    1.0560 H   0  0  0  0  0
    6.5490   -1.3980    2.3380 H   0  0  0  0  0
    5.4060   -2.4850    1.5080 H   0  0  0  0  0
  1  2  1  0  0  0
  1 14  1  0  0  0
  1 39  1  0  0  0
  1 40  1  0  0  0
  2 41  1  0  0  0
  2 42  1  0  0  0
  3  2  1  0  0  0
  3 43  1  0  0  0
  3 44  1  0  0  0
  4 21  1  0  0  0
  5 17  2  0  0  0
  5 16  1  0  0  0
  5 45  1  0  0  0
  6 46  1  0  0  0
  7 19  1  0  0  0
  7 47  1  0  0  0
  8 18  2  0  0  0
  8 48  1  0  0  0
  9 10  1  0  0  0
  9 49  1  0  0  0
  9 50  1  0  0  0
 10 11  1  0  0  0
 10 51  1  0  0  0
 11 52  1  0  0  0
 11 53  1  0  0  0
 11 54  1  0  0  0
 12 55  1  0  0  0
 12 56  1  0  0  0
 12 57  1  0  0  0
 13 14  1  0  0  0
 13 12  1  0  0  0
 14 58  1  0  0  0
 14 59  1  0  0  0
 15  3  1  0  0  0
 15  4  1  0  0  0
 16  4  2  0  0  0
 16 60  1  0  0  0
 17 15  1  0  0  0
 18  6  1  0  0  0
 18 17  1  0  0  0
 19  6  2  0  0  0
 19 61  1  0  0  0
 20  7  2  0  0  0
 20  8  1  0  0  0
 20 62  1  0  0  0
 21 23  1  0  0  0
 22 21  2  0  0  0
 23 25  1  0  0  0
 23  9  1  0  0  0
 24 10  1  0  0  0
 24 63  1  0  0  0
 24 64  1  0  0  0
 24 65  1  0  0  0
 25 26  1  0  0  0
 25 66  1  0  0  0
 26 27  1  0  0  0
 26 67  1  0  0  0
 26 68  1  0  0  0
 27 28  1  0  0  0
 27 69  1  0  0  0
 28 70  1  0  0  0
 28 71  1  0  0  0
 29 31  1  0  0  0
 29 28  1  0  0  0
 29 72  1  0  0  0
 30 25  1  0  0  0
 30 29  1  0  0  0
 30 73  1  0  0  0
 30 74  1  0  0  0
 31 32  2  0  0  0
 33 31  1  0  0  0
 33 38  1  0  0  0
 34 33  1  0  0  0
 34 35  1  0  0  0
 34 75  1  0  0  0
 34 76  1  0  0  0
 35 36  1  0  0  0
 35 77  1  0  0  0
 35 78  1  0  0  0
 36 37  1  0  0  0
 37 79  1  0  0  0
 37 80  1  0  0  0
 38 37  1  0  0  0
 38 81  1  0  0  0
 38 82  1  0  0  0
M  END
$$$$
