7EK
  CCTOOLS-0919241028

 80 83  0  0  1  0  0  0  0  0999 V2000
   -2.5030    3.2710    0.4360 C   0  0  0  0  0
   -2.5680    1.8380   -0.0950 C   0  0  0  0  0
   -2.7520    0.8690    1.0740 C   0  0  0  0  0
   -2.9380   -0.5290    0.5440 C   0  0  0  0  0
   -1.9570   -1.4570    0.3310 C   0  0  0  0  0
   -6.2580   -0.6710   -0.8170 C   0  0  0  0  0
   -7.8880    0.6400    0.3490 C   0  0  0  0  0
   -5.7640    0.2030    1.3650 C   0  0  0  0  0
   -0.0920   -3.3940   -0.5180 C   0  0  0  0  0
    0.0070   -3.1210   -2.0200 C   0  0  0  0  0
   -0.3550   -4.3900   -2.7940 C   0  0  0  0  0
   -2.0850    6.5680   -1.2550 C   0  0  0  0  0
   -2.2570    5.5790   -0.2380 O   0  0  0  0  0
   -2.3180    4.2400   -0.7340 C   0  0  0  0  0
   -2.5270   -2.5770   -0.1470 N   0  0  0  0  0
   -3.8000   -2.4050   -0.2440 N   0  0  0  0  0
   -4.1060   -1.1090    0.1930 N   0  0  0  0  0
   -5.3790   -0.5240    0.2470 C   0  0  0  0  0
   -7.5100   -0.0890   -0.7630 C   0  0  0  0  0
   -7.0150    0.7880    1.4110 C   0  0  0  0  0
   -0.5170   -1.2620    0.5810 C   0  0  0  0  0
   -0.1250   -0.2400    1.1110 O   0  0  0  0  0
    0.3650   -2.2170    0.2240 N   0  0  0  0  0
   -0.9610   -1.9990   -2.3990 C   0  0  0  0  0
    1.7800   -2.0760    0.5770 C   0  0  0  0  0
    1.9210   -1.9950    2.0990 C   0  0  0  0  0
    3.3370   -1.8330    2.4530 N   0  0  0  0  0
    3.8830   -0.5880    1.8990 C   0  0  0  0  0
    3.8010   -0.6270    0.3720 C   0  0  0  0  0
    2.3390   -0.7980   -0.0520 C   0  0  0  0  0
    4.3420    0.6600   -0.1950 C   0  0  0  0  0
    3.6090    1.6140   -0.3400 O   0  0  0  0  0
    5.6420    0.7500   -0.5400 N   0  0  0  0  0
    6.2170    2.0250   -0.9990 C   0  0  0  0  0
    7.4920    2.2970   -0.1930 C   0  0  0  0  0
    8.3470    1.1530   -0.2630 O   0  0  0  0  0
    7.7880   -0.0310    0.3100 C   0  0  0  0  0
    6.5290   -0.4210   -0.4650 C   0  0  0  0  0
   -3.4280    3.5070    0.9600 H   0  0  0  0  0
   -1.6610    3.3670    1.1220 H   0  0  0  0  0
   -3.4090    1.7420   -0.7820 H   0  0  0  0  0
   -1.6420    1.6020   -0.6200 H   0  0  0  0  0
   -1.8700    0.9000    1.7150 H   0  0  0  0  0
   -3.6310    1.1580    1.6510 H   0  0  0  0  0
   -5.9620   -1.2370   -1.6890 H   0  0  0  0  0
   -8.8650    1.0970    0.3870 H   0  0  0  0  0
   -5.0820    0.3190    2.1950 H   0  0  0  0  0
   -1.1280   -3.6100   -0.2550 H   0  0  0  0  0
    0.5330   -4.2500   -0.2620 H   0  0  0  0  0
    1.0260   -2.8220   -2.2680 H   0  0  0  0  0
   -1.3730   -4.6890   -2.5460 H   0  0  0  0  0
   -0.2840   -4.1960   -3.8640 H   0  0  0  0  0
    0.3350   -5.1900   -2.5240 H   0  0  0  0  0
   -1.1550    6.3810   -1.7910 H   0  0  0  0  0
   -2.9210    6.5210   -1.9530 H   0  0  0  0  0
   -2.0490    7.5570   -0.7980 H   0  0  0  0  0
   -1.3920    4.0050   -1.2580 H   0  0  0  0  0
   -3.1590    4.1450   -1.4210 H   0  0  0  0  0
   -8.1940   -0.2030   -1.5910 H   0  0  0  0  0
   -7.3100    1.3610    2.2770 H   0  0  0  0  0
   -0.9410   -1.8510   -3.4790 H   0  0  0  0  0
   -1.9700   -2.2690   -2.0880 H   0  0  0  0  0
   -0.6610   -1.0770   -1.9010 H   0  0  0  0  0
    2.3340   -2.9380    0.2060 H   0  0  0  0  0
    1.3540   -1.1410    2.4710 H   0  0  0  0  0
    1.5360   -2.9100    2.5490 H   0  0  0  0  0
    3.4660   -1.8720    3.4530 H   0  0  0  0  0
    3.3070    0.2590    2.2720 H   0  0  0  0  0
    4.9240   -0.4810    2.2040 H   0  0  0  0  0
    4.3890   -1.4660   -0.0030 H   0  0  0  0  0
    2.2800   -0.8700   -1.1380 H   0  0  0  0  0
    1.7590    0.0600    0.2890 H   0  0  0  0  0
    6.4600    1.9570   -2.0590 H   0  0  0  0  0
    5.5010    2.8300   -0.8360 H   0  0  0  0  0
    8.0080    3.1630   -0.6090 H   0  0  0  0  0
    7.2310    2.4940    0.8470 H   0  0  0  0  0
    8.5160   -0.8400    0.2560 H   0  0  0  0  0
    7.5280    0.1560    1.3520 H   0  0  0  0  0
    6.0190   -1.2350    0.0510 H   0  0  0  0  0
    6.8040   -0.7390   -1.4700 H   0  0  0  0  0
  1 14  1  0  0  0
  1 39  1  0  0  0
  1 40  1  0  0  0
  2  1  1  0  0  0
  2 41  1  0  0  0
  2 42  1  0  0  0
  3  2  1  0  0  0
  3 43  1  0  0  0
  3 44  1  0  0  0
  4  3  1  0  0  0
  4  5  2  0  0  0
  5 21  1  0  0  0
  6 18  2  0  0  0
  6 45  1  0  0  0
  7 20  1  0  0  0
  7 46  1  0  0  0
  8 47  1  0  0  0
  9 10  1  0  0  0
  9 48  1  0  0  0
  9 49  1  0  0  0
 10 11  1  0  0  0
 10 24  1  0  0  0
 10 50  1  0  0  0
 11 51  1  0  0  0
 11 52  1  0  0  0
 11 53  1  0  0  0
 12 54  1  0  0  0
 12 55  1  0  0  0
 12 56  1  0  0  0
 13 12  1  0  0  0
 14 13  1  0  0  0
 14 57  1  0  0  0
 14 58  1  0  0  0
 15  5  1  0  0  0
 16 17  1  0  0  0
 16 15  2  0  0  0
 17  4  1  0  0  0
 18  8  1  0  0  0
 18 17  1  0  0  0
 19  7  2  0  0  0
 19  6  1  0  0  0
 19 59  1  0  0  0
 20  8  2  0  0  0
 20 60  1  0  0  0
 21 23  1  0  0  0
 22 21  2  0  0  0
 23 25  1  0  0  0
 23  9  1  0  0  0
 24 61  1  0  0  0
 24 62  1  0  0  0
 24 63  1  0  0  0
 25 26  1  0  0  0
 25 64  1  0  0  0
 26 27  1  0  0  0
 26 65  1  0  0  0
 26 66  1  0  0  0
 27 28  1  0  0  0
 27 67  1  0  0  0
 28 68  1  0  0  0
 28 69  1  0  0  0
 29 31  1  0  0  0
 29 28  1  0  0  0
 29 70  1  0  0  0
 30 25  1  0  0  0
 30 29  1  0  0  0
 30 71  1  0  0  0
 30 72  1  0  0  0
 31 33  1  0  0  0
 32 31  2  0  0  0
 33 34  1  0  0  0
 33 38  1  0  0  0
 34 35  1  0  0  0
 34 73  1  0  0  0
 34 74  1  0  0  0
 35 75  1  0  0  0
 35 76  1  0  0  0
 36 35  1  0  0  0
 37 36  1  0  0  0
 37 77  1  0  0  0
 37 78  1  0  0  0
 38 37  1  0  0  0
 38 79  1  0  0  0
 38 80  1  0  0  0
M  END
$$$$
