7IG
  CCTOOLS-0919241028

 45 47  0  0  0  0  0  0  0  0999 V2000
    4.4350   -1.3940    0.2210 C   0  0  0  0  0
    5.7590   -1.3650    0.1270 N   0  0  0  0  0
    6.3910   -0.2420   -0.1820 C   0  0  0  0  0
    5.7390    0.8890   -0.4090 N   0  0  0  0  0
    4.4190    0.9440   -0.3350 C   0  0  0  0  0
    3.7100   -0.2100   -0.0070 C   0  0  0  0  0
    3.7790   -2.5690    0.5450 N   0  0  0  0  0
    7.7720   -0.2510   -0.2710 N   0  0  0  0  0
    3.6920    2.2380   -0.5950 C   0  0  0  0  0
    3.6110    3.0470    0.7010 C   0  0  0  0  0
    0.2310   -0.3410    1.4070 C   0  0  0  0  0
    1.6070   -0.3580    1.3220 C   0  0  0  0  0
    2.2300   -0.1930    0.0860 C   0  0  0  0  0
    1.4600   -0.0050   -1.0610 C   0  0  0  0  0
    0.0840    0.0060   -0.9720 C   0  0  0  0  0
   -0.5350   -0.1600    0.2610 C   0  0  0  0  0
   -1.9290   -0.1430    0.3500 N   0  0  0  0  0
   -6.1870    1.1840    0.1830 C   0  0  0  0  0
   -4.8430    1.2020   -0.1530 C   0  0  0  0  0
   -4.1990    0.0270   -0.4910 C   0  0  0  0  0
   -4.8950   -1.1660   -0.5000 C   0  0  0  0  0
   -6.2370   -1.1880   -0.1600 C   0  0  0  0  0
   -6.8840   -0.0120    0.1790 C   0  0  0  0  0
   -6.8160    2.3320    0.5140 F   0  0  0  0  0
   -2.7370    0.0490   -0.8570 C   0  0  0  0  0
   -6.9170   -2.3560   -0.1640 F   0  0  0  0  0
    4.2860   -3.3800    0.7050 H   0  0  0  0  0
    2.8110   -2.5820    0.6110 H   0  0  0  0  0
    8.2490    0.5630   -0.4960 H   0  0  0  0  0
    8.2630   -1.0720   -0.1080 H   0  0  0  0  0
    2.6850    2.0240   -0.9530 H   0  0  0  0  0
    4.2310    2.8120   -1.3490 H   0  0  0  0  0
    3.0010    2.5100    1.4270 H   0  0  0  0  0
    4.6140    3.1890    1.1040 H   0  0  0  0  0
    3.1610    4.0180    0.4960 H   0  0  0  0  0
   -0.2520   -0.4700    2.3640 H   0  0  0  0  0
    2.2020   -0.5000    2.2130 H   0  0  0  0  0
    1.9410    0.1240   -2.0190 H   0  0  0  0  0
   -0.5130    0.1470   -1.8610 H   0  0  0  0  0
   -2.3620   -0.2580    1.2100 H   0  0  0  0  0
   -4.2990    2.1350   -0.1500 H   0  0  0  0  0
   -4.3910   -2.0840   -0.7660 H   0  0  0  0  0
   -7.9310   -0.0280    0.4420 H   0  0  0  0  0
   -2.4900    1.0090   -1.3110 H   0  0  0  0  0
   -2.5280   -0.7530   -1.5650 H   0  0  0  0  0
  1  2  2  0  0  0
  1  6  1  0  0  0
  1  7  1  0  0  0
  2  3  1  0  0  0
  3  4  2  0  0  0
  3  8  1  0  0  0
  4  5  1  0  0  0
  5  6  2  0  0  0
  5  9  1  0  0  0
  6 13  1  0  0  0
  7 27  1  0  0  0
  7 28  1  0  0  0
  8 29  1  0  0  0
  8 30  1  0  0  0
  9 10  1  0  0  0
  9 31  1  0  0  0
  9 32  1  0  0  0
 10 33  1  0  0  0
 10 34  1  0  0  0
 10 35  1  0  0  0
 11 12  1  0  0  0
 11 16  2  0  0  0
 11 36  1  0  0  0
 12 13  2  0  0  0
 12 37  1  0  0  0
 13 14  1  0  0  0
 14 15  2  0  0  0
 14 38  1  0  0  0
 15 16  1  0  0  0
 15 39  1  0  0  0
 16 17  1  0  0  0
 17 25  1  0  0  0
 17 40  1  0  0  0
 18 19  1  0  0  0
 18 23  2  0  0  0
 18 24  1  0  0  0
 19 20  2  0  0  0
 19 41  1  0  0  0
 20 21  1  0  0  0
 20 25  1  0  0  0
 21 22  2  0  0  0
 21 42  1  0  0  0
 22 23  1  0  0  0
 22 26  1  0  0  0
 23 43  1  0  0  0
 25 44  1  0  0  0
 25 45  1  0  0  0
M  END
$$$$
