90D
  CCTOOLS-0919241036

 80 82  0  0  1  0  0  0  0  0999 V2000
    3.6020    4.5100   -0.7360 C   0  0  0  0  0
    3.2700    3.1050   -1.2440 C   0  0  0  0  0
    1.7760    2.9090   -1.2370 C   0  0  0  0  0
    1.0310    3.2380   -2.3540 C   0  0  0  0  0
   -0.3410    3.0610   -2.3550 C   0  0  0  0  0
   -0.9740    2.5530   -1.2380 C   0  0  0  0  0
   -0.2280    2.2190   -0.1090 C   0  0  0  0  0
    1.1540    2.3950   -0.1160 C   0  0  0  0  0
   -0.9030    1.6730    1.0940 C   0  0  0  0  0
   -1.1260    2.4900    2.2030 C   0  0  0  0  0
   -0.7270    3.7800    2.1850 F   0  0  0  0  0
   -1.7550    1.9740    3.3210 C   0  0  0  0  0
   -2.1640    0.6530    3.3390 C   0  0  0  0  0
   -1.9440   -0.1600    2.2420 C   0  0  0  0  0
   -1.3220    0.3450    1.1180 C   0  0  0  0  0
   -1.0900   -0.5420   -0.0780 C   0  0  0  0  0
   -0.9640    0.2640   -1.2510 O   0  0  0  0  0
   -2.2720   -1.4990   -0.2410 C   0  0  0  0  0
   -3.5560   -0.6920   -0.4450 C   0  0  0  0  0
   -4.7390   -1.6490   -0.6080 C   0  0  0  0  0
   -5.9690   -0.8770   -0.8030 N   0  0  0  0  0
   -7.1450   -1.5130   -0.9700 C   0  0  0  0  0
   -7.1860   -2.7280   -0.9580 O   0  0  0  0  0
   -8.2750   -0.8030   -1.1500 O   0  0  0  0  0
   -9.5050   -1.5550   -1.3220 C   0  0  0  0  0
    0.1940   -1.3490    0.1260 C   0  0  0  0  0
    0.0360   -2.2620    1.3440 C   0  0  0  0  0
    1.3070   -3.0930    1.5300 C   0  0  0  0  0
    2.4930   -2.1560    1.7790 C   0  0  0  0  0
    2.5640   -1.1810    0.6820 N   0  0  0  0  0
    1.3680   -0.3920    0.3590 C   0  0  0  0  0
    3.7060   -1.0130   -0.0140 C   0  0  0  0  0
    3.7520   -0.2050   -0.9180 O   0  0  0  0  0
    4.9250   -1.8300    0.3290 C   0  0  0  0  0
    6.0740   -1.4480   -0.6060 C   0  0  0  0  0
    7.3120   -2.2770   -0.2580 C   0  0  0  0  0
    8.4150   -1.9100   -1.1550 N   0  0  0  0  0
    9.6230   -2.6880   -0.8500 C   0  0  0  0  0
    3.2250    4.6280    0.2800 H   0  0  0  0  0
    4.6830    4.6520   -0.7410 H   0  0  0  0  0
    3.1360    5.2510   -1.3850 H   0  0  0  0  0
    3.6470    2.9870   -2.2600 H   0  0  0  0  0
    3.7370    2.3640   -0.5950 H   0  0  0  0  0
    1.5230    3.6360   -3.2300 H   0  0  0  0  0
   -0.9170    3.3200   -3.2300 H   0  0  0  0  0
   -2.0450    2.4150   -1.2400 H   0  0  0  0  0
    1.7370    2.1340    0.7540 H   0  0  0  0  0
   -1.9290    2.6040    4.1810 H   0  0  0  0  0
   -2.6550    0.2540    4.2140 H   0  0  0  0  0
   -2.2650   -1.1910    2.2630 H   0  0  0  0  0
   -0.8130   -0.2410   -2.0620 H   0  0  0  0  0
   -2.1050   -2.1400   -1.1060 H   0  0  0  0  0
   -2.3680   -2.1140    0.6540 H   0  0  0  0  0
   -3.7240   -0.0510    0.4200 H   0  0  0  0  0
   -3.4610   -0.0770   -1.3400 H   0  0  0  0  0
   -4.5710   -2.2900   -1.4730 H   0  0  0  0  0
   -4.8350   -2.2640    0.2870 H   0  0  0  0  0
   -5.9360    0.0930   -0.8130 H   0  0  0  0  0
   -9.4190   -2.1960   -2.2000 H   0  0  0  0  0
   -9.6820   -2.1700   -0.4400 H   0  0  0  0  0
  -10.3370   -0.8640   -1.4570 H   0  0  0  0  0
    0.3890   -1.9540   -0.7600 H   0  0  0  0  0
   -0.1340   -1.6550    2.2330 H   0  0  0  0  0
   -0.8140   -2.9270    1.1900 H   0  0  0  0  0
    1.1850   -3.7600    2.3830 H   0  0  0  0  0
    1.4920   -3.6820    0.6310 H   0  0  0  0  0
    2.3520   -1.6320    2.7250 H   0  0  0  0  0
    3.4160   -2.7350    1.8140 H   0  0  0  0  0
    1.5480    0.1930   -0.5430 H   0  0  0  0  0
    1.1350    0.2760    1.1890 H   0  0  0  0  0
    5.2150   -1.6330    1.3610 H   0  0  0  0  0
    4.6970   -2.8890    0.2100 H   0  0  0  0  0
    5.7840   -1.6440   -1.6380 H   0  0  0  0  0
    6.3020   -0.3880   -0.4880 H   0  0  0  0  0
    7.6020   -2.0810    0.7740 H   0  0  0  0  0
    7.0840   -3.3360   -0.3760 H   0  0  0  0  0
    8.6030   -0.9200   -1.1120 H   0  0  0  0  0
   10.4250   -2.3970   -1.5290 H   0  0  0  0  0
    9.9300   -2.4950    0.1780 H   0  0  0  0  0
    9.4120   -3.7500   -0.9720 H   0  0  0  0  0
  1  2  1  0  0  0
  1 39  1  0  0  0
  1 40  1  0  0  0
  1 41  1  0  0  0
  2  3  1  0  0  0
  2 42  1  0  0  0
  2 43  1  0  0  0
  3  4  2  0  0  0
  3  8  1  0  0  0
  4  5  1  0  0  0
  4 44  1  0  0  0
  5  6  2  0  0  0
  5 45  1  0  0  0
  6 46  1  0  0  0
  7  6  1  0  0  0
  7  9  1  0  0  0
  8  7  2  0  0  0
  8 47  1  0  0  0
  9 15  2  0  0  0
  9 10  1  0  0  0
 10 12  2  0  0  0
 11 10  1  0  0  0
 12 13  1  0  0  0
 12 48  1  0  0  0
 13 49  1  0  0  0
 14 13  2  0  0  0
 14 50  1  0  0  0
 15 14  1  0  0  0
 16 18  1  0  0  0
 16 17  1  0  0  0
 16 15  1  0  0  0
 17 51  1  0  0  0
 18 19  1  0  0  0
 18 52  1  0  0  0
 18 53  1  0  0  0
 19 54  1  0  0  0
 19 55  1  0  0  0
 20 19  1  0  0  0
 20 21  1  0  0  0
 20 56  1  0  0  0
 20 57  1  0  0  0
 21 22  1  0  0  0
 21 58  1  0  0  0
 22 23  2  0  0  0
 22 24  1  0  0  0
 24 25  1  0  0  0
 25 59  1  0  0  0
 25 60  1  0  0  0
 25 61  1  0  0  0
 26 16  1  0  0  0
 26 62  1  0  0  0
 27 26  1  0  0  0
 27 63  1  0  0  0
 27 64  1  0  0  0
 28 27  1  0  0  0
 28 65  1  0  0  0
 28 66  1  0  0  0
 29 30  1  0  0  0
 29 28  1  0  0  0
 29 67  1  0  0  0
 29 68  1  0  0  0
 30 31  1  0  0  0
 31 26  1  0  0  0
 31 69  1  0  0  0
 31 70  1  0  0  0
 32 33  2  0  0  0
 32 30  1  0  0  0
 34 32  1  0  0  0
 34 71  1  0  0  0
 34 72  1  0  0  0
 35 34  1  0  0  0
 35 73  1  0  0  0
 35 74  1  0  0  0
 36 35  1  0  0  0
 36 75  1  0  0  0
 36 76  1  0  0  0
 37 36  1  0  0  0
 37 77  1  0  0  0
 38 37  1  0  0  0
 38 78  1  0  0  0
 38 79  1  0  0  0
 38 80  1  0  0  0
M  END
$$$$
