9G7
  CCTOOLS-0919241037

 84 87  0  0  1  0  0  0  0  0999 V2000
    1.5100   -1.5710    3.1180 C   0  0  0  0  0
    1.9180    0.7130    3.7140 C   0  0  0  0  0
    1.2290    0.1790    1.4830 C   0  0  0  0  0
    4.3780    1.8420   -0.9670 C   0  0  0  0  0
    6.7730    1.8240   -1.4120 C   0  0  0  0  0
   -0.4770    1.3210    0.0930 C   0  0  0  0  0
   -0.3950    2.5840    0.9550 C   0  0  0  0  0
    2.4990   -3.5060   -3.1920 C   0  0  0  0  0
    2.4510   -4.2820   -1.8750 C   0  0  0  0  0
    1.4060   -3.6780   -0.9730 C   0  0  0  0  0
    0.0830   -4.0660   -1.0920 C   0  0  0  0  0
   -0.8810   -3.5160   -0.2680 C   0  0  0  0  0
   -0.5280   -2.5760    0.6790 C   0  0  0  0  0
    0.8020   -2.1810    0.8040 C   0  0  0  0  0
    1.7710   -2.7430   -0.0260 C   0  0  0  0  0
    1.1870   -1.1720    1.8200 C   0  0  0  0  0
    1.4720   -2.8800    3.4530 F   0  0  0  0  0
    1.8740   -0.6260    4.0580 C   0  0  0  0  0
    1.5990    1.1140    2.4300 C   0  0  0  0  0
    0.8820    0.6190    0.0840 C   0  0  0  0  0
    0.8220   -0.5230   -0.7730 O   0  0  0  0  0
    1.9520    1.5850   -0.4270 C   0  0  0  0  0
    3.3070    0.8760   -0.4550 C   0  0  0  0  0
    5.6760    1.1630   -0.9930 N   0  0  0  0  0
    6.6860    2.9830   -1.7670 O   0  0  0  0  0
    7.9660    1.2000   -1.4370 O   0  0  0  0  0
    9.1050    1.9730   -1.8990 C   0  0  0  0  0
   -1.7450    3.3050    0.9370 C   0  0  0  0  0
   -2.8180    2.3850    1.5280 C   0  0  0  0  0
   -2.8050    1.1110    0.7960 N   0  0  0  0  0
   -1.5360    0.3800    0.6740 C   0  0  0  0  0
   -3.9350    0.6230    0.2470 C   0  0  0  0  0
   -3.9100   -0.4300   -0.3550 O   0  0  0  0  0
   -5.2280    1.3850    0.3800 C   0  0  0  0  0
   -6.3470    0.6180   -0.3270 C   0  0  0  0  0
   -7.6830    1.3260   -0.0870 C   0  0  0  0  0
   -8.7890    0.5890   -0.8460 C   0  0  0  0  0
   -8.4730    0.5750   -2.2810 N   0  0  0  0  0
   -7.2180   -0.1410   -2.5410 C   0  0  0  0  0
   -6.0650    0.5740   -1.8320 C   0  0  0  0  0
    2.2070    1.4480    4.4510 H   0  0  0  0  0
    4.1190    2.1710   -1.9730 H   0  0  0  0  0
    4.4330    2.7060   -0.3050 H   0  0  0  0  0
   -0.7530    1.5940   -0.9260 H   0  0  0  0  0
   -0.1440    2.3090    1.9790 H   0  0  0  0  0
    0.3750    3.2450    0.5570 H   0  0  0  0  0
    2.8350   -2.4870   -3.0010 H   0  0  0  0  0
    3.1910   -3.9950   -3.8770 H   0  0  0  0  0
    1.5040   -3.4830   -3.6370 H   0  0  0  0  0
    2.1990   -5.3240   -2.0760 H   0  0  0  0  0
    3.4250   -4.2320   -1.3880 H   0  0  0  0  0
   -0.1970   -4.8010   -1.8320 H   0  0  0  0  0
   -1.9120   -3.8220   -0.3660 H   0  0  0  0  0
   -1.2830   -2.1460    1.3220 H   0  0  0  0  0
    2.8030   -2.4410    0.0670 H   0  0  0  0  0
    2.1250   -0.9330    5.0630 H   0  0  0  0  0
    1.6350    2.1610    2.1670 H   0  0  0  0  0
    0.6030   -0.3150   -1.6910 H   0  0  0  0  0
    1.6930    1.9140   -1.4340 H   0  0  0  0  0
    2.0070    2.4490    0.2350 H   0  0  0  0  0
    3.2520    0.0120   -1.1170 H   0  0  0  0  0
    3.5660    0.5470    0.5510 H   0  0  0  0  0
    5.7450    0.2380   -0.7100 H   0  0  0  0  0
    8.9270    2.3060   -2.9220 H   0  0  0  0  0
    9.2420    2.8410   -1.2530 H   0  0  0  0  0
   10.0010    1.3530   -1.8690 H   0  0  0  0  0
   -1.6790    4.2160    1.5310 H   0  0  0  0  0
   -2.0080    3.5580   -0.0900 H   0  0  0  0  0
   -2.6040    2.2040    2.5810 H   0  0  0  0  0
   -3.7970    2.8540    1.4270 H   0  0  0  0  0
   -1.6700   -0.4750    0.0110 H   0  0  0  0  0
   -1.2180    0.0350    1.6580 H   0  0  0  0  0
   -5.4760    1.4980    1.4360 H   0  0  0  0  0
   -5.1180    2.3690   -0.0750 H   0  0  0  0  0
   -6.3970   -0.3980    0.0650 H   0  0  0  0  0
   -7.9100    1.3230    0.9790 H   0  0  0  0  0
   -7.6200    2.3540   -0.4430 H   0  0  0  0  0
   -8.8610   -0.4350   -0.4800 H   0  0  0  0  0
   -9.7400    1.0990   -0.6890 H   0  0  0  0  0
   -9.2330    0.1780   -2.8140 H   0  0  0  0  0
   -7.2970   -1.1620   -2.1660 H   0  0  0  0  0
   -7.0270   -0.1620   -3.6140 H   0  0  0  0  0
   -5.9760    1.5900   -2.2150 H   0  0  0  0  0
   -5.1360    0.0330   -2.0120 H   0  0  0  0  0
  1 16  1  0  0  0
  1 17  1  0  0  0
  2 19  2  0  0  0
  2 18  1  0  0  0
  2 41  1  0  0  0
  3 20  1  0  0  0
  3 16  2  0  0  0
  4 24  1  0  0  0
  4 42  1  0  0  0
  4 43  1  0  0  0
  5 26  1  0  0  0
  5 24  1  0  0  0
  6 31  1  0  0  0
  6 44  1  0  0  0
  7 28  1  0  0  0
  7  6  1  0  0  0
  7 45  1  0  0  0
  7 46  1  0  0  0
  8 47  1  0  0  0
  8 48  1  0  0  0
  8 49  1  0  0  0
  9  8  1  0  0  0
  9 50  1  0  0  0
  9 51  1  0  0  0
 10 11  1  0  0  0
 10  9  1  0  0  0
 11 52  1  0  0  0
 12 11  2  0  0  0
 12 53  1  0  0  0
 13 12  1  0  0  0
 13 54  1  0  0  0
 14 13  2  0  0  0
 14 15  1  0  0  0
 15 10  2  0  0  0
 15 55  1  0  0  0
 16 14  1  0  0  0
 18  1  2  0  0  0
 18 56  1  0  0  0
 19  3  1  0  0  0
 19 57  1  0  0  0
 20  6  1  0  0  0
 20 22  1  0  0  0
 21 20  1  0  0  0
 21 58  1  0  0  0
 22 59  1  0  0  0
 22 60  1  0  0  0
 23 22  1  0  0  0
 23  4  1  0  0  0
 23 61  1  0  0  0
 23 62  1  0  0  0
 24 63  1  0  0  0
 25  5  2  0  0  0
 27 26  1  0  0  0
 27 64  1  0  0  0
 27 65  1  0  0  0
 27 66  1  0  0  0
 28 29  1  0  0  0
 28 67  1  0  0  0
 28 68  1  0  0  0
 29 30  1  0  0  0
 29 69  1  0  0  0
 29 70  1  0  0  0
 30 32  1  0  0  0
 31 30  1  0  0  0
 31 71  1  0  0  0
 31 72  1  0  0  0
 32 33  2  0  0  0
 32 34  1  0  0  0
 34 35  1  0  0  0
 34 73  1  0  0  0
 34 74  1  0  0  0
 35 36  1  0  0  0
 35 40  1  0  0  0
 35 75  1  0  0  0
 36 37  1  0  0  0
 36 76  1  0  0  0
 36 77  1  0  0  0
 37 38  1  0  0  0
 37 78  1  0  0  0
 37 79  1  0  0  0
 38 80  1  0  0  0
 39 38  1  0  0  0
 39 81  1  0  0  0
 39 82  1  0  0  0
 40 39  1  0  0  0
 40 83  1  0  0  0
 40 84  1  0  0  0
M  END
$$$$
