9JD
  CCTOOLS-0919241038

 78 80  0  0  1  0  0  0  0  0999 V2000
    1.0160   -1.7140    2.8600 C   0  0  0  0  0
    1.2720   -0.8450    3.9050 C   0  0  0  0  0
    1.2700    0.5200    3.6880 C   0  0  0  0  0
    1.0140    1.0250    2.4260 C   0  0  0  0  0
    0.7580    0.1680    1.3750 C   0  0  0  0  0
    0.4790    0.7210    0.0010 C   0  0  0  0  0
    1.5540    1.7480   -0.3630 C   0  0  0  0  0
    2.9210    1.0620   -0.4090 C   0  0  0  0  0
    5.3030    1.4310   -0.8170 N   0  0  0  0  0
    6.3150    3.3330   -1.3560 O   0  0  0  0  0
    7.6090    1.5410   -1.1610 O   0  0  0  0  0
    2.6780   -5.6910   -1.2340 C   0  0  0  0  0
    2.4100   -4.3520   -1.9240 C   0  0  0  0  0
    1.2740   -3.6470   -1.2300 C   0  0  0  0  0
   -0.0280   -3.8630   -1.6430 C   0  0  0  0  0
   -1.0760   -3.2180   -1.0090 C   0  0  0  0  0
   -0.8260   -2.3560    0.0390 C   0  0  0  0  0
    0.4840   -2.1350    0.4590 C   0  0  0  0  0
    1.5350   -2.7910   -0.1790 C   0  0  0  0  0
    0.7580   -1.2090    1.5860 C   0  0  0  0  0
    1.0230   -3.0480    3.0720 F   0  0  0  0  0
    0.4950   -0.3420   -0.9530 O   0  0  0  0  0
    3.9950    2.0890   -0.7730 C   0  0  0  0  0
    6.4060    2.1450   -1.1200 C   0  0  0  0  0
    8.7520    2.3710   -1.4930 C   0  0  0  0  0
   -0.8940    1.3950   -0.0090 C   0  0  0  0  0
   -0.9040    2.5500    0.9960 C   0  0  0  0  0
   -2.2670    3.2450    0.9640 C   0  0  0  0  0
   -3.3550    2.2450    1.3660 C   0  0  0  0  0
   -3.2590    1.0660    0.4950 N   0  0  0  0  0
   -1.9670    0.3750    0.3820 C   0  0  0  0  0
   -4.3350    0.6260   -0.1870 C   0  0  0  0  0
   -4.2420   -0.3490   -0.9020 O   0  0  0  0  0
   -5.6530    1.3450   -0.0610 C   0  0  0  0  0
   -6.7000    0.6480   -0.9310 C   0  0  0  0  0
   -6.3340    0.7690   -2.3060 O   0  0  0  0  0
   -8.0660    1.3010   -0.7070 C   0  0  0  0  0
   -9.0920    0.5560   -1.4490 N   0  0  0  0  0
    1.4720   -1.2340    4.8930 H   0  0  0  0  0
    1.4700    1.1960    4.5070 H   0  0  0  0  0
    1.0140    2.0930    2.2620 H   0  0  0  0  0
    1.3300    2.1780   -1.3400 H   0  0  0  0  0
    1.5700    2.5390    0.3870 H   0  0  0  0  0
    3.1440    0.6320    0.5670 H   0  0  0  0  0
    2.9050    0.2710   -1.1590 H   0  0  0  0  0
    5.3760    0.4830   -0.6290 H   0  0  0  0  0
    3.4990   -6.2010   -1.7370 H   0  0  0  0  0
    2.9420   -5.5160   -0.1910 H   0  0  0  0  0
    1.7820   -6.3100   -1.2830 H   0  0  0  0  0
    3.3060   -3.7330   -1.8760 H   0  0  0  0  0
    2.1460   -4.5270   -2.9670 H   0  0  0  0  0
   -0.2270   -4.5360   -2.4630 H   0  0  0  0  0
   -2.0910   -3.3900   -1.3360 H   0  0  0  0  0
   -1.6450   -1.8540    0.5320 H   0  0  0  0  0
    2.5520   -2.6260    0.1460 H   0  0  0  0  0
    0.3220   -0.0590   -1.8610 H   0  0  0  0  0
    3.7710    2.5180   -1.7500 H   0  0  0  0  0
    4.0100    2.8790   -0.0230 H   0  0  0  0  0
    8.8500    3.1680   -0.7560 H   0  0  0  0  0
    9.6560    1.7620   -1.4910 H   0  0  0  0  0
    8.6100    2.8070   -2.4820 H   0  0  0  0  0
   -1.1040    1.7800   -1.0070 H   0  0  0  0  0
   -0.7180    2.1610    1.9970 H   0  0  0  0  0
   -0.1250    3.2660    0.7340 H   0  0  0  0  0
   -2.2650    4.0820    1.6630 H   0  0  0  0  0
   -2.4640    3.6130   -0.0430 H   0  0  0  0  0
   -3.2110    1.9460    2.4040 H   0  0  0  0  0
   -4.3360    2.7070    1.2520 H   0  0  0  0  0
   -2.0320   -0.3990   -0.3830 H   0  0  0  0  0
   -1.7100   -0.0780    1.3400 H   0  0  0  0  0
   -5.9770    1.3300    0.9800 H   0  0  0  0  0
   -5.5360    2.3780   -0.3900 H   0  0  0  0  0
   -6.7530   -0.4070   -0.6600 H   0  0  0  0  0
   -6.2680    1.6820   -2.6170 H   0  0  0  0  0
   -8.3050    1.2870    0.3560 H   0  0  0  0  0
   -8.0380    2.3310   -1.0600 H   0  0  0  0  0
   -9.0940   -0.4180   -1.1860 H   0  0  0  0  0
  -10.0040    0.9680   -1.3180 H   0  0  0  0  0
  1  2  1  0  0  0
  2  3  2  0  0  0
  2 39  1  0  0  0
  3 40  1  0  0  0
  4  3  1  0  0  0
  4 41  1  0  0  0
  5  4  2  0  0  0
  6  5  1  0  0  0
  6 22  1  0  0  0
  7  8  1  0  0  0
  7  6  1  0  0  0
  7 42  1  0  0  0
  7 43  1  0  0  0
  8 44  1  0  0  0
  8 45  1  0  0  0
  9 23  1  0  0  0
  9 24  1  0  0  0
  9 46  1  0  0  0
 11 24  1  0  0  0
 11 25  1  0  0  0
 12 13  1  0  0  0
 12 47  1  0  0  0
 12 48  1  0  0  0
 12 49  1  0  0  0
 13 14  1  0  0  0
 13 50  1  0  0  0
 13 51  1  0  0  0
 14 19  1  0  0  0
 15 14  2  0  0  0
 15 16  1  0  0  0
 15 52  1  0  0  0
 16 17  2  0  0  0
 16 53  1  0  0  0
 17 18  1  0  0  0
 17 54  1  0  0  0
 18 20  1  0  0  0
 19 18  2  0  0  0
 19 55  1  0  0  0
 20  1  2  0  0  0
 20  5  1  0  0  0
 21  1  1  0  0  0
 22 56  1  0  0  0
 23  8  1  0  0  0
 23 57  1  0  0  0
 23 58  1  0  0  0
 24 10  2  0  0  0
 25 59  1  0  0  0
 25 60  1  0  0  0
 25 61  1  0  0  0
 26  6  1  0  0  0
 26 27  1  0  0  0
 26 62  1  0  0  0
 27 63  1  0  0  0
 27 64  1  0  0  0
 28 27  1  0  0  0
 28 65  1  0  0  0
 28 66  1  0  0  0
 29 28  1  0  0  0
 29 67  1  0  0  0
 29 68  1  0  0  0
 30 29  1  0  0  0
 30 31  1  0  0  0
 31 26  1  0  0  0
 31 69  1  0  0  0
 31 70  1  0  0  0
 32 30  1  0  0  0
 33 32  2  0  0  0
 34 32  1  0  0  0
 34 71  1  0  0  0
 34 72  1  0  0  0
 35 36  1  0  0  0
 35 34  1  0  0  0
 35 73  1  0  0  0
 36 74  1  0  0  0
 37 35  1  0  0  0
 37 75  1  0  0  0
 37 76  1  0  0  0
 38 37  1  0  0  0
 38 77  1  0  0  0
 38 78  1  0  0  0
M  END
$$$$
