BFX
  CCTOOLS-0919241033

 69 73  0  0  0  0  0  0  0  0999 V2000
   -7.5650   -1.3640    1.5310 BR  0  0  0  0  0
   -7.7350    0.1380    0.3940 C   0  0  0  0  0
   -6.6240    0.6280   -0.2780 C   0  0  0  0  0
   -8.9660    0.7440    0.2280 C   0  0  0  0  0
   -5.4140    0.0290   -0.1210 O   0  0  0  0  0
   -6.7500    1.7290   -1.1120 C   0  0  0  0  0
   -9.0910    1.8410   -0.6030 C   0  0  0  0  0
   -4.3150    0.5870   -0.8440 C   0  0  0  0  0
   -7.9830    2.3360   -1.2710 C   0  0  0  0  0
   -3.0460   -0.2130   -0.5420 C   0  0  0  0  0
   -8.1080    3.4090   -2.0820 F   0  0  0  0  0
   -1.8700    0.3840   -1.3160 C   0  0  0  0  0
   -0.6210   -0.4050   -1.0190 C   0  0  0  0  0
   -0.2890   -1.4920   -1.8080 C   0  0  0  0  0
    0.1920   -0.0350    0.0390 C   0  0  0  0  0
    0.8520   -2.2190   -1.5430 C   0  0  0  0  0
    1.3370   -0.7510    0.3170 C   0  0  0  0  0
    1.6760   -1.8550   -0.4730 C   0  0  0  0  0
    2.8960   -2.6250   -0.1820 C   0  0  0  0  0
    4.0850   -2.0260   -0.3170 C   0  0  0  0  0
    2.7610   -4.0560    0.2610 C   0  0  0  0  0
    4.1200   -0.6240   -0.7380 C   0  0  0  0  0
    5.3850   -2.7310   -0.0550 C   0  0  0  0  0
    4.1050   -4.7720    0.1050 C   0  0  0  0  0
    3.0810   -0.0240   -0.9450 O   0  0  0  0  0
    5.3020    0.0030   -0.8960 N   0  0  0  0  0
    5.1510   -3.9500    0.7300 N   0  0  0  0  0
    6.5520   -0.7560   -0.8030 C   0  0  0  0  0
    5.3390    1.4440   -1.1610 C   0  0  0  0  0
    7.4710   -0.4610    0.3850 C   0  0  0  0  0
    7.8600    0.0080   -1.0190 C   0  0  0  0  0
    5.0920    2.1960    0.1210 C   0  0  0  0  0
    6.1600    2.6740    0.8590 C   0  0  0  0  0
    3.7980    2.4150    0.5560 C   0  0  0  0  0
    7.7850    2.4060    0.3090 CL  0  0  0  0  0
    5.9330    3.3660    2.0360 C   0  0  0  0  0
    3.5720    3.1060    1.7320 C   0  0  0  0  0
    4.6390    3.5790    2.4730 C   0  0  0  0  0
   -9.8310    0.3590    0.7470 H   0  0  0  0  0
   -5.8870    2.1130   -1.6360 H   0  0  0  0  0
  -10.0540    2.3130   -0.7320 H   0  0  0  0  0
   -4.5240    0.5470   -1.9120 H   0  0  0  0  0
   -4.1700    1.6250   -0.5410 H   0  0  0  0  0
   -2.8370   -0.1730    0.5270 H   0  0  0  0  0
   -3.1910   -1.2500   -0.8450 H   0  0  0  0  0
   -2.0790    0.3440   -2.3850 H   0  0  0  0  0
   -1.7250    1.4210   -1.0130 H   0  0  0  0  0
   -0.9260   -1.7720   -2.6340 H   0  0  0  0  0
   -0.0710    0.8180    0.6470 H   0  0  0  0  0
    1.1100   -3.0670   -2.1590 H   0  0  0  0  0
    1.9700   -0.4610    1.1430 H   0  0  0  0  0
    2.4540   -4.0840    1.3070 H   0  0  0  0  0
    2.0100   -4.5560   -0.3500 H   0  0  0  0  0
    5.8490   -2.9970   -1.0050 H   0  0  0  0  0
    6.0510   -2.0680    0.4970 H   0  0  0  0  0
    4.0610   -5.7440    0.5980 H   0  0  0  0  0
    4.3270   -4.9060   -0.9530 H   0  0  0  0  0
    6.0050   -4.4750    0.8450 H   0  0  0  0  0
    6.5050   -1.7850   -1.1590 H   0  0  0  0  0
    6.3160    1.7150   -1.5600 H   0  0  0  0  0
    4.5660    1.6990   -1.8870 H   0  0  0  0  0
    7.1450    0.2970    1.0970 H   0  0  0  0  0
    8.0280   -1.2960    0.8090 H   0  0  0  0  0
    8.6740   -0.5190   -1.5170 H   0  0  0  0  0
    7.7910    1.0750   -1.2300 H   0  0  0  0  0
    2.9640    2.0460   -0.0220 H   0  0  0  0  0
    6.7660    3.7380    2.6130 H   0  0  0  0  0
    2.5610    3.2770    2.0710 H   0  0  0  0  0
    4.4620    4.1190    3.3910 H   0  0  0  0  0
  1  2  1  0  0  0
  2  3  2  0  0  0
  2  4  1  0  0  0
  3  5  1  0  0  0
  3  6  1  0  0  0
  4  7  2  0  0  0
  4 39  1  0  0  0
  5  8  1  0  0  0
  6  9  2  0  0  0
  6 40  1  0  0  0
  7  9  1  0  0  0
  7 41  1  0  0  0
  8 10  1  0  0  0
  8 42  1  0  0  0
  8 43  1  0  0  0
  9 11  1  0  0  0
 10 12  1  0  0  0
 10 44  1  0  0  0
 10 45  1  0  0  0
 12 13  1  0  0  0
 12 46  1  0  0  0
 12 47  1  0  0  0
 13 14  2  0  0  0
 13 15  1  0  0  0
 14 16  1  0  0  0
 14 48  1  0  0  0
 15 17  2  0  0  0
 15 49  1  0  0  0
 16 18  2  0  0  0
 16 50  1  0  0  0
 17 18  1  0  0  0
 17 51  1  0  0  0
 18 19  1  0  0  0
 19 20  2  0  0  0
 19 21  1  0  0  0
 20 22  1  0  0  0
 20 23  1  0  0  0
 21 24  1  0  0  0
 21 52  1  0  0  0
 21 53  1  0  0  0
 22 25  2  0  0  0
 22 26  1  0  0  0
 23 27  1  0  0  0
 23 54  1  0  0  0
 23 55  1  0  0  0
 24 27  1  0  0  0
 24 56  1  0  0  0
 24 57  1  0  0  0
 26 28  1  0  0  0
 26 29  1  0  0  0
 27 58  1  0  0  0
 28 30  1  0  0  0
 28 31  1  0  0  0
 28 59  1  0  0  0
 29 32  1  0  0  0
 29 60  1  0  0  0
 29 61  1  0  0  0
 30 31  1  0  0  0
 30 62  1  0  0  0
 30 63  1  0  0  0
 31 64  1  0  0  0
 31 65  1  0  0  0
 32 33  2  0  0  0
 32 34  1  0  0  0
 33 35  1  0  0  0
 33 36  1  0  0  0
 34 37  2  0  0  0
 34 66  1  0  0  0
 36 38  2  0  0  0
 36 67  1  0  0  0
 37 38  1  0  0  0
 37 68  1  0  0  0
 38 69  1  0  0  0
M  END
$$$$
