C39
  CCTOOLS-0919241036

 82 82  0  0  1  0  0  0  0  0999 V2000
    6.8110    6.8440    0.0970 C   0  0  0  0  0
    5.8780    5.7650    0.0120 O   0  0  0  0  0
    6.4710    4.4710    0.1460 C   0  0  0  0  0
    5.3850    3.3990    0.0400 C   0  0  0  0  0
    6.0200    2.0140    0.1840 C   0  0  0  0  0
    5.0060    1.0130    0.0850 O   0  0  0  0  0
    5.4040   -0.2800    0.1920 C   0  0  0  0  0
    6.7430   -0.5820    0.3890 C   0  0  0  0  0
    7.1470   -1.8980    0.4980 C   0  0  0  0  0
    6.2210   -2.9240    0.4130 C   0  0  0  0  0
    4.8860   -2.6420    0.2180 C   0  0  0  0  0
    4.4630   -1.3150    0.1110 C   0  0  0  0  0
    3.0350   -1.0060   -0.0930 C   0  0  0  0  0
    2.6710    0.1500   -0.1900 O   0  0  0  0  0
    2.1340   -2.0050   -0.1700 N   0  0  0  0  0
    0.7150   -1.6980   -0.3720 C   0  0  0  0  0
   -0.0680   -3.0000   -0.5540 C   0  0  0  0  0
    0.4000   -3.7020   -1.8300 C   0  0  0  0  0
   -0.3330   -5.0370   -1.9750 C   0  0  0  0  0
    0.0930   -2.8180   -3.0400 C   0  0  0  0  0
   -1.5610   -2.6850   -0.6630 C   0  0  0  0  0
   -2.0600   -2.1150    0.6660 C   0  0  0  0  0
   -1.9600   -3.1440    1.7100 N   0  0  0  0  0
   -3.5190   -1.6790    0.5180 C   0  0  0  0  0
   -4.3190   -2.8060    0.1540 O   0  0  0  0  0
   -4.0180   -1.1080    1.8470 C   0  0  0  0  0
   -5.4270   -0.5410    1.6620 C   0  0  0  0  0
   -5.9900   -0.1190    3.0200 C   0  0  0  0  0
   -5.3710    0.6550    0.7480 C   0  0  0  0  0
   -4.3080    1.0190    0.2890 O   0  0  0  0  0
   -6.5010    1.3220    0.4390 N   0  0  0  0  0
   -6.4460    2.4850   -0.4500 C   0  0  0  0  0
   -7.8550    3.0520   -0.6350 C   0  0  0  0  0
   -7.7980    4.2670   -1.5630 C   0  0  0  0  0
   -9.2070    4.8340   -1.7490 C   0  0  0  0  0
    6.2820    7.7910   -0.0140 H   0  0  0  0  0
    7.3100    6.8170    1.0660 H   0  0  0  0  0
    7.5520    6.7460   -0.6960 H   0  0  0  0  0
    7.2050    4.3250   -0.6460 H   0  0  0  0  0
    6.9630    4.3960    1.1160 H   0  0  0  0  0
    4.6500    3.5460    0.8320 H   0  0  0  0  0
    4.8930    3.4740   -0.9300 H   0  0  0  0  0
    6.7540    1.8670   -0.6080 H   0  0  0  0  0
    6.5110    1.9390    1.1540 H   0  0  0  0  0
    7.4710    0.2130    0.4570 H   0  0  0  0  0
    8.1910   -2.1280    0.6500 H   0  0  0  0  0
    6.5460   -3.9510    0.4990 H   0  0  0  0  0
    4.1680   -3.4460    0.1510 H   0  0  0  0  0
    2.4240   -2.9270   -0.0930 H   0  0  0  0  0
    0.3330   -1.1620    0.4960 H   0  0  0  0  0
    0.6010   -1.0780   -1.2610 H   0  0  0  0  0
    0.1050   -3.6500    0.3030 H   0  0  0  0  0
    1.4740   -3.8810   -1.7740 H   0  0  0  0  0
   -1.7220   -1.9550   -1.4550 H   0  0  0  0  0
   -2.1090   -3.5990   -0.8940 H   0  0  0  0  0
   -1.3940   -4.8530   -2.1420 H   0  0  0  0  0
    0.0780   -5.5870   -2.8220 H   0  0  0  0  0
   -0.2040   -5.6230   -1.0650 H   0  0  0  0  0
    0.6850   -1.9040   -2.9830 H   0  0  0  0  0
    0.3430   -3.3550   -3.9550 H   0  0  0  0  0
   -0.9670   -2.5650   -3.0460 H   0  0  0  0  0
   -1.4510   -1.2550    0.9450 H   0  0  0  0  0
   -2.4340   -3.9900    1.4300 H   0  0  0  0  0
   -0.9960   -3.3300    1.9430 H   0  0  0  0  0
   -3.5940   -0.9150   -0.2560 H   0  0  0  0  0
   -4.3000   -3.5260    0.7990 H   0  0  0  0  0
   -4.0410   -1.8990    2.5970 H   0  0  0  0  0
   -3.3480   -0.3140    2.1770 H   0  0  0  0  0
   -6.0710   -1.3040    1.2230 H   0  0  0  0  0
   -7.0250    0.2020    2.9010 H   0  0  0  0  0
   -5.9490   -0.9630    3.7090 H   0  0  0  0  0
   -5.3980    0.7050    3.4190 H   0  0  0  0  0
   -7.3510    1.0310    0.8050 H   0  0  0  0  0
   -5.8030    3.2470   -0.0110 H   0  0  0  0  0
   -6.0450    2.1840   -1.4180 H   0  0  0  0  0
   -8.4990    2.2900   -1.0740 H   0  0  0  0  0
   -8.2560    3.3530    0.3330 H   0  0  0  0  0
   -7.1540    5.0290   -1.1250 H   0  0  0  0  0
   -7.3970    3.9660   -2.5310 H   0  0  0  0  0
   -9.6080    5.1350   -0.7810 H   0  0  0  0  0
   -9.1660    5.7000   -2.4100 H   0  0  0  0  0
   -9.8510    4.0710   -2.1880 H   0  0  0  0  0
  1  2  1  0  0  0
  1 36  1  0  0  0
  1 37  1  0  0  0
  1 38  1  0  0  0
  2  3  1  0  0  0
  3  4  1  0  0  0
  3 39  1  0  0  0
  3 40  1  0  0  0
  4  5  1  0  0  0
  4 41  1  0  0  0
  4 42  1  0  0  0
  5  6  1  0  0  0
  5 43  1  0  0  0
  5 44  1  0  0  0
  6  7  1  0  0  0
  7  8  1  0  0  0
  7 12  2  0  0  0
  8  9  2  0  0  0
  8 45  1  0  0  0
  9 10  1  0  0  0
  9 46  1  0  0  0
 10 11  2  0  0  0
 10 47  1  0  0  0
 11 12  1  0  0  0
 11 48  1  0  0  0
 12 13  1  0  0  0
 13 14  2  0  0  0
 13 15  1  0  0  0
 15 16  1  0  0  0
 15 49  1  0  0  0
 16 17  1  0  0  0
 16 50  1  0  0  0
 16 51  1  0  0  0
 17 18  1  0  0  0
 17 21  1  0  0  0
 17 52  1  0  0  0
 18 19  1  0  0  0
 18 20  1  0  0  0
 18 53  1  0  0  0
 19 56  1  0  0  0
 19 57  1  0  0  0
 19 58  1  0  0  0
 20 59  1  0  0  0
 20 60  1  0  0  0
 20 61  1  0  0  0
 21 22  1  0  0  0
 21 54  1  0  0  0
 21 55  1  0  0  0
 22 23  1  0  0  0
 22 24  1  0  0  0
 22 62  1  0  0  0
 23 63  1  0  0  0
 23 64  1  0  0  0
 24 25  1  0  0  0
 24 26  1  0  0  0
 24 65  1  0  0  0
 25 66  1  0  0  0
 26 27  1  0  0  0
 26 67  1  0  0  0
 26 68  1  0  0  0
 27 28  1  0  0  0
 27 29  1  0  0  0
 27 69  1  0  0  0
 28 70  1  0  0  0
 28 71  1  0  0  0
 28 72  1  0  0  0
 29 30  2  0  0  0
 29 31  1  0  0  0
 31 32  1  0  0  0
 31 73  1  0  0  0
 32 33  1  0  0  0
 32 74  1  0  0  0
 32 75  1  0  0  0
 33 34  1  0  0  0
 33 76  1  0  0  0
 33 77  1  0  0  0
 34 35  1  0  0  0
 34 78  1  0  0  0
 34 79  1  0  0  0
 35 80  1  0  0  0
 35 81  1  0  0  0
 35 82  1  0  0  0
M  END
$$$$
