C40
  CCTOOLS-0919241036

 76 76  0  0  1  0  0  0  0  0999 V2000
    6.6850   -6.6380   -0.5700 C   0  0  0  0  0
    5.7680   -5.5570   -0.3820 O   0  0  0  0  0
    6.3840   -4.2680   -0.3760 C   0  0  0  0  0
    5.3140   -3.1940   -0.1680 C   0  0  0  0  0
    5.9730   -1.8120   -0.1630 C   0  0  0  0  0
    4.9740   -0.8090    0.0320 O   0  0  0  0  0
    5.3940    0.4800    0.0620 C   0  0  0  0  0
    6.7400    0.7780   -0.0920 C   0  0  0  0  0
    7.1660    2.0910   -0.0610 C   0  0  0  0  0
    6.2560    3.1190    0.1230 C   0  0  0  0  0
    4.9150    2.8410    0.2780 C   0  0  0  0  0
    4.4690    1.5180    0.2430 C   0  0  0  0  0
    3.0340    1.2130    0.4020 C   0  0  0  0  0
    2.6510    0.0600    0.3760 O   0  0  0  0  0
    0.7240    1.9120    0.7340 C   0  0  0  0  0
    2.1490    2.2140    0.5760 N   0  0  0  0  0
    0.3620    3.8840    2.2240 C   0  0  0  0  0
   -0.0570    3.2150    0.9140 C   0  0  0  0  0
   -1.5560    2.9110    0.9530 C   0  0  0  0  0
   -1.8420    3.3730   -1.4340 N   0  0  0  0  0
   -1.9970    2.3440   -0.3980 C   0  0  0  0  0
   -3.4640    1.9170   -0.3170 C   0  0  0  0  0
   -4.2720    3.0490    0.0110 O   0  0  0  0  0
   -3.9050    1.3500   -1.6680 C   0  0  0  0  0
   -5.3330    0.8120   -1.5540 C   0  0  0  0  0
   -5.8300    0.3860   -2.9370 C   0  0  0  0  0
   -5.3480   -0.3770   -0.6270 C   0  0  0  0  0
   -4.3190   -0.7550   -0.1090 O   0  0  0  0  0
   -6.5210   -2.1740    0.5280 C   0  0  0  0  0
   -6.5060   -1.0180   -0.3730 N   0  0  0  0  0
   -7.9480   -2.7120    0.6420 C   0  0  0  0  0
   -7.9640   -3.9190    1.5830 C   0  0  0  0  0
   -9.3910   -4.4570    1.6980 C   0  0  0  0  0
    7.4200   -6.6350    0.2340 H   0  0  0  0  0
    6.1400   -7.5820   -0.5620 H   0  0  0  0  0
    7.1930   -6.5200   -1.5270 H   0  0  0  0  0
    7.1130   -4.2160    0.4320 H   0  0  0  0  0
    6.8860   -4.1010   -1.3290 H   0  0  0  0  0
    4.5850   -3.2450   -0.9770 H   0  0  0  0  0
    4.8120   -3.3610    0.7850 H   0  0  0  0  0
    6.7020   -1.7610    0.6460 H   0  0  0  0  0
    6.4750   -1.6460   -1.1160 H   0  0  0  0  0
    7.4560   -0.0180   -0.2360 H   0  0  0  0  0
    8.2150    2.3180   -0.1800 H   0  0  0  0  0
    6.5980    4.1430    0.1470 H   0  0  0  0  0
    4.2090    3.6460    0.4210 H   0  0  0  0  0
    2.4540    3.1340    0.5970 H   0  0  0  0  0
    0.3630    1.3920   -0.1540 H   0  0  0  0  0
    0.5810    1.2790    1.6090 H   0  0  0  0  0
    0.1560    3.8850    0.0800 H   0  0  0  0  0
    0.0740    3.2510    3.0640 H   0  0  0  0  0
    1.4430    4.0260    2.2300 H   0  0  0  0  0
   -0.1320    4.8510    2.3130 H   0  0  0  0  0
   -1.7580    2.1800    1.7370 H   0  0  0  0  0
   -2.1080    3.8270    1.1600 H   0  0  0  0  0
   -1.3810    1.4800   -0.6480 H   0  0  0  0  0
   -2.4300    4.1700   -1.2430 H   0  0  0  0  0
   -0.8770    3.6500   -1.5270 H   0  0  0  0  0
   -3.5790    1.1540    0.4520 H   0  0  0  0  0
   -4.2190    3.7700   -0.6320 H   0  0  0  0  0
   -3.8740    2.1380   -2.4210 H   0  0  0  0  0
   -3.2340    0.5430   -1.9600 H   0  0  0  0  0
   -5.9840    1.5900   -1.1570 H   0  0  0  0  0
   -6.8750    0.0850   -2.8700 H   0  0  0  0  0
   -5.7350    1.2220   -3.6300 H   0  0  0  0  0
   -5.2330   -0.4520   -3.2950 H   0  0  0  0  0
   -7.3290   -0.7160   -0.7880 H   0  0  0  0  0
   -5.8690   -2.9520    0.1310 H   0  0  0  0  0
   -6.1670   -1.8700    1.5130 H   0  0  0  0  0
   -8.6000   -1.9340    1.0390 H   0  0  0  0  0
   -8.3020   -3.0160   -0.3430 H   0  0  0  0  0
   -7.3120   -4.6970    1.1870 H   0  0  0  0  0
   -7.6100   -3.6150    2.5690 H   0  0  0  0  0
  -10.0430   -3.6790    2.0940 H   0  0  0  0  0
   -9.7450   -4.7610    0.7120 H   0  0  0  0  0
   -9.4030   -5.3170    2.3680 H   0  0  0  0  0
  1  2  1  0  0  0
  1 34  1  0  0  0
  1 35  1  0  0  0
  1 36  1  0  0  0
  2  3  1  0  0  0
  3  4  1  0  0  0
  3 37  1  0  0  0
  3 38  1  0  0  0
  4  5  1  0  0  0
  4 39  1  0  0  0
  4 40  1  0  0  0
  5  6  1  0  0  0
  5 41  1  0  0  0
  5 42  1  0  0  0
  6  7  1  0  0  0
  7  8  1  0  0  0
  7 12  2  0  0  0
  8  9  2  0  0  0
  8 43  1  0  0  0
  9 10  1  0  0  0
  9 44  1  0  0  0
 10 11  2  0  0  0
 10 45  1  0  0  0
 11 12  1  0  0  0
 11 46  1  0  0  0
 12 13  1  0  0  0
 13 14  2  0  0  0
 13 16  1  0  0  0
 15 16  1  0  0  0
 15 18  1  0  0  0
 15 48  1  0  0  0
 15 49  1  0  0  0
 16 47  1  0  0  0
 17 18  1  0  0  0
 17 51  1  0  0  0
 17 52  1  0  0  0
 17 53  1  0  0  0
 18 19  1  0  0  0
 18 50  1  0  0  0
 19 21  1  0  0  0
 19 54  1  0  0  0
 19 55  1  0  0  0
 20 21  1  0  0  0
 20 57  1  0  0  0
 20 58  1  0  0  0
 21 22  1  0  0  0
 21 56  1  0  0  0
 22 23  1  0  0  0
 22 24  1  0  0  0
 22 59  1  0  0  0
 23 60  1  0  0  0
 24 25  1  0  0  0
 24 61  1  0  0  0
 24 62  1  0  0  0
 25 26  1  0  0  0
 25 27  1  0  0  0
 25 63  1  0  0  0
 26 64  1  0  0  0
 26 65  1  0  0  0
 26 66  1  0  0  0
 27 28  2  0  0  0
 27 30  1  0  0  0
 29 30  1  0  0  0
 29 31  1  0  0  0
 29 68  1  0  0  0
 29 69  1  0  0  0
 30 67  1  0  0  0
 31 32  1  0  0  0
 31 70  1  0  0  0
 31 71  1  0  0  0
 32 33  1  0  0  0
 32 72  1  0  0  0
 32 73  1  0  0  0
 33 74  1  0  0  0
 33 75  1  0  0  0
 33 76  1  0  0  0
M  END
$$$$
