C41
  CCTOOLS-0919241036

 92 92  0  0  1  0  0  0  0  0999 V2000
  -10.9260   -4.2320   -0.3840 C   0  0  0  0  0
  -10.6740   -2.8280   -0.4750 O   0  0  0  0  0
   -9.3360   -2.4550   -0.1400 C   0  0  0  0  0
   -9.1820   -0.9390   -0.2720 C   0  0  0  0  0
   -7.7490   -0.5390    0.0870 C   0  0  0  0  0
   -7.6050    0.8770   -0.0360 O   0  0  0  0  0
   -6.3820    1.4000    0.2500 C   0  0  0  0  0
   -5.3450    0.5680    0.6390 C   0  0  0  0  0
   -4.1030    1.1020    0.9290 C   0  0  0  0  0
   -3.8920    2.4650    0.8310 C   0  0  0  0  0
   -4.9230    3.3000    0.4430 C   0  0  0  0  0
   -6.1690    2.7720    0.1450 C   0  0  0  0  0
   -7.1820    3.5910   -0.2420 O   0  0  0  0  0
   -6.8910    4.9880   -0.3270 C   0  0  0  0  0
   -2.9760    0.1960    1.3530 C   0  0  0  0  0
   -1.8330    0.2950    0.3410 C   0  0  0  0  0
   -2.2020   -0.4830   -0.9230 C   0  0  0  0  0
   -2.6030   -1.9100   -0.5450 C   0  0  0  0  0
   -3.3750    0.2070   -1.6230 C   0  0  0  0  0
   -0.5590   -0.2960    0.9500 C   0  0  0  0  0
    0.6220   -0.0330    0.0140 C   0  0  0  0  0
    0.4320   -0.7800   -1.2360 N   0  0  0  0  0
    1.9180   -0.4890    0.6890 C   0  0  0  0  0
    1.8390   -1.8870    0.9760 O   0  0  0  0  0
    3.1000   -0.2260   -0.2470 C   0  0  0  0  0
    4.4090   -0.4780    0.5030 C   0  0  0  0  0
    4.5210   -1.9640    0.8500 C   0  0  0  0  0
    4.4870   -2.7920   -0.4360 C   0  0  0  0  0
    5.8390   -2.2180    1.5850 C   0  0  0  0  0
    5.5720   -0.0760   -0.3680 C   0  0  0  0  0
    5.4020    0.1250   -1.5510 O   0  0  0  0  0
    6.8010    0.0580    0.1690 N   0  0  0  0  0
    7.9430    0.3830   -0.6890 C   0  0  0  0  0
    9.2100    0.4780    0.1630 C   0  0  0  0  0
    9.0360    1.5740    1.2170 C   0  0  0  0  0
    9.4590   -0.8620    0.8580 C   0  0  0  0  0
   10.3850    0.8120   -0.7190 C   0  0  0  0  0
   10.2250    0.9600   -1.9120 O   0  0  0  0  0
   11.6140    0.9470   -0.1820 N   0  0  0  0  0
  -10.2630   -4.7650   -1.0660 H   0  0  0  0  0
  -10.7450   -4.5680    0.6370 H   0  0  0  0  0
  -11.9630   -4.4330   -0.6540 H   0  0  0  0  0
   -9.1220   -2.7540    0.8860 H   0  0  0  0  0
   -8.6400   -2.9510   -0.8160 H   0  0  0  0  0
   -9.3960   -0.6390   -1.2980 H   0  0  0  0  0
   -9.8780   -0.4420    0.4050 H   0  0  0  0  0
   -7.5350   -0.8380    1.1130 H   0  0  0  0  0
   -7.0530   -1.0350   -0.5890 H   0  0  0  0  0
   -5.5070   -0.4960    0.7170 H   0  0  0  0  0
   -2.9210    2.8780    1.0590 H   0  0  0  0  0
   -2.6170    0.4980    2.3370 H   0  0  0  0  0
   -3.3340   -0.8330    1.3970 H   0  0  0  0  0
   -4.7560    4.3650    0.3670 H   0  0  0  0  0
   -6.5760    5.3530    0.6500 H   0  0  0  0  0
   -6.0910    5.1490   -1.0500 H   0  0  0  0  0
   -7.7830    5.5270   -0.6460 H   0  0  0  0  0
   -1.6630    1.3410    0.0870 H   0  0  0  0  0
   -1.3450   -0.5130   -1.5950 H   0  0  0  0  0
   -0.3680    0.1710    1.9160 H   0  0  0  0  0
   -0.6850   -1.3700    1.0830 H   0  0  0  0  0
   -3.4720   -1.8810    0.1130 H   0  0  0  0  0
   -2.8500   -2.4700   -1.4470 H   0  0  0  0  0
   -1.7740   -2.3970   -0.0310 H   0  0  0  0  0
   -3.0790    1.2140   -1.9180 H   0  0  0  0  0
   -3.6560   -0.3630   -2.5090 H   0  0  0  0  0
   -4.2230    0.2630   -0.9410 H   0  0  0  0  0
    0.6820    1.0330   -0.2050 H   0  0  0  0  0
    1.2030   -0.6270   -1.8700 H   0  0  0  0  0
    0.3050   -1.7650   -1.0540 H   0  0  0  0  0
    2.0590    0.0650    1.6170 H   0  0  0  0  0
    1.7850   -2.4470    0.1900 H   0  0  0  0  0
    3.0390   -0.8950   -1.1060 H   0  0  0  0  0
    3.0700    0.8080   -0.5890 H   0  0  0  0  0
    4.4220    0.1110    1.4200 H   0  0  0  0  0
    3.6870   -2.2520    1.4900 H   0  0  0  0  0
    5.2610   -2.4380   -1.1170 H   0  0  0  0  0
    4.6630   -3.8410   -0.1980 H   0  0  0  0  0
    3.5110   -2.6860   -0.9100 H   0  0  0  0  0
    5.9350   -1.5150    2.4120 H   0  0  0  0  0
    5.8480   -3.2370    1.9720 H   0  0  0  0  0
    6.6720   -2.0850    0.8950 H   0  0  0  0  0
    6.9290   -0.0600    1.1230 H   0  0  0  0  0
    8.0680   -0.3980   -1.4390 H   0  0  0  0  0
    7.7660    1.3380   -1.1840 H   0  0  0  0  0
    8.1860    1.3320    1.8550 H   0  0  0  0  0
    9.9380    1.6410    1.8240 H   0  0  0  0  0
    8.8580    2.5290    0.7220 H   0  0  0  0  0
    9.5830   -1.6430    0.1080 H   0  0  0  0  0
   10.3620   -0.7950    1.4650 H   0  0  0  0  0
    8.6090   -1.1040    1.4970 H   0  0  0  0  0
   11.7430    0.8280    0.7720 H   0  0  0  0  0
   12.3710    1.1620   -0.7500 H   0  0  0  0  0
  1  2  1  0  0  0
  1 40  1  0  0  0
  1 41  1  0  0  0
  1 42  1  0  0  0
  2  3  1  0  0  0
  3  4  1  0  0  0
  3 43  1  0  0  0
  3 44  1  0  0  0
  4  5  1  0  0  0
  4 45  1  0  0  0
  4 46  1  0  0  0
  5  6  1  0  0  0
  5 47  1  0  0  0
  5 48  1  0  0  0
  6  7  1  0  0  0
  7  8  1  0  0  0
  7 12  2  0  0  0
  8  9  2  0  0  0
  8 49  1  0  0  0
  9 10  1  0  0  0
  9 15  1  0  0  0
 10 11  2  0  0  0
 10 50  1  0  0  0
 11 12  1  0  0  0
 11 53  1  0  0  0
 12 13  1  0  0  0
 13 14  1  0  0  0
 14 54  1  0  0  0
 14 55  1  0  0  0
 14 56  1  0  0  0
 15 16  1  0  0  0
 15 51  1  0  0  0
 15 52  1  0  0  0
 16 17  1  0  0  0
 16 20  1  0  0  0
 16 57  1  0  0  0
 17 18  1  0  0  0
 17 19  1  0  0  0
 17 58  1  0  0  0
 18 61  1  0  0  0
 18 62  1  0  0  0
 18 63  1  0  0  0
 19 64  1  0  0  0
 19 65  1  0  0  0
 19 66  1  0  0  0
 20 21  1  0  0  0
 20 59  1  0  0  0
 20 60  1  0  0  0
 21 22  1  0  0  0
 21 23  1  0  0  0
 21 67  1  0  0  0
 22 68  1  0  0  0
 22 69  1  0  0  0
 23 24  1  0  0  0
 23 25  1  0  0  0
 23 70  1  0  0  0
 24 71  1  0  0  0
 25 26  1  0  0  0
 25 72  1  0  0  0
 25 73  1  0  0  0
 26 27  1  0  0  0
 26 30  1  0  0  0
 26 74  1  0  0  0
 27 28  1  0  0  0
 27 29  1  0  0  0
 27 75  1  0  0  0
 28 76  1  0  0  0
 28 77  1  0  0  0
 28 78  1  0  0  0
 29 79  1  0  0  0
 29 80  1  0  0  0
 29 81  1  0  0  0
 30 31  2  0  0  0
 30 32  1  0  0  0
 32 33  1  0  0  0
 32 82  1  0  0  0
 33 34  1  0  0  0
 33 83  1  0  0  0
 33 84  1  0  0  0
 34 35  1  0  0  0
 34 36  1  0  0  0
 34 37  1  0  0  0
 35 85  1  0  0  0
 35 86  1  0  0  0
 35 87  1  0  0  0
 36 88  1  0  0  0
 36 89  1  0  0  0
 36 90  1  0  0  0
 37 38  2  0  0  0
 37 39  1  0  0  0
 39 91  1  0  0  0
 39 92  1  0  0  0
M  END
$$$$
