C47
  CCTOOLS-0919241036

 78 79  0  0  1  0  0  0  0  0999 V2000
   15.0460   43.6410   70.8210 C   0  0  0  0  0
   15.0650   45.1600   70.7220 O   0  0  0  0  0
   14.0670   45.7280   71.5810 C   0  0  0  0  0
   13.5100   44.9490   72.3930 O   0  0  0  0  0
   13.6110   47.1370   71.5470 C   0  0  0  0  0
   14.0030   47.4790   72.9680 C   0  0  0  0  0
   13.5000   48.8170   73.3360 C   0  0  0  0  0
   14.2950   49.7790   74.0560 C   0  0  0  0  0
   13.6730   51.1380   74.3230 C   0  0  0  0  0
   12.4190   51.5220   73.8450 C   0  0  0  0  0
   11.6820   50.6160   73.0600 C   0  0  0  0  0
   12.2480   49.2420   72.7600 C   0  0  0  0  0
   11.5300   48.1680   71.9710 N   0  0  0  0  0
   12.1670   46.9630   71.6000 C   0  0  0  0  0
   10.1710   48.3200   71.6290 C   0  0  0  0  0
    9.5430   49.3240   72.0060 O   0  0  0  0  0
    9.4860   47.3020   70.7100 C   0  0  0  0  0
    8.9280   48.0840   69.6230 C   0  0  0  0  0
    9.9140   48.9720   68.9730 C   0  0  0  0  0
    7.7560   49.0040   70.0320 C   0  0  0  0  0
    8.4640   47.1550   68.6220 C   0  0  0  0  0
    7.4430   46.2430   69.2840 C   0  0  0  0  0
    8.2470   44.9030   69.5060 N   0  0  0  0  0
    6.2660   45.9000   68.3560 C   0  0  0  0  0
    6.9830   44.8730   67.5570 O   0  0  0  0  0
    5.1930   45.2640   69.3680 C   0  0  0  0  0
    4.0430   44.7720   68.4950 C   0  0  0  0  0
    3.2760   43.6620   69.2780 C   0  0  0  0  0
    3.3150   46.0400   67.9720 C   0  0  0  0  0
    3.5350   47.1020   68.4280 O   0  0  0  0  0
    2.5000   45.9940   66.9960 N   0  0  0  0  0
    1.9960   47.1240   66.2530 C   0  0  0  0  0
    3.1300   47.8680   65.8800 C   0  0  0  0  0
    2.7920   48.4560   64.5710 C   0  0  0  0  0
    1.6740   49.4960   65.0320 C   0  0  0  0  0
   15.0410   43.2070   69.8100 H   0  0  0  0  0
   15.9400   43.2980   71.3630 H   0  0  0  0  0
   14.1430   43.3200   71.3610 H   0  0  0  0  0
   13.9510   47.8130   70.7480 H   0  0  0  0  0
   13.5720   46.7320   73.6500 H   0  0  0  0  0
   15.1000   47.4780   73.0450 H   0  0  0  0  0
   11.8060   46.6570   70.6070 H   0  0  0  0  0
   11.9310   46.1930   72.3500 H   0  0  0  0  0
   15.2940   49.5430   74.3920 H   0  0  0  0  0
   14.2320   51.8470   74.9160 H   0  0  0  0  0
   12.0210   52.4990   74.0740 H   0  0  0  0  0
   10.7150   50.8990   72.6720 H   0  0  0  0  0
   10.2100   46.5650   70.3320 H   0  0  0  0  0
    8.7120   46.7290   71.2410 H   0  0  0  0  0
    9.5880   49.1930   67.9460 H   0  0  0  0  0
    9.9930   49.9100   69.5420 H   0  0  0  0  0
   10.8950   48.4740   68.9480 H   0  0  0  0  0
    7.8190   49.2230   71.1080 H   0  0  0  0  0
    7.8120   49.9440   69.4630 H   0  0  0  0  0
    6.8020   48.5000   69.8160 H   0  0  0  0  0
    8.0000   47.6990   67.7860 H   0  0  0  0  0
    9.3030   46.5690   68.2200 H   0  0  0  0  0
    7.0260   46.7170   70.1850 H   0  0  0  0  0
    8.4170   44.4650   68.6230 H   0  0  0  0  0
    9.1190   45.1070   69.9500 H   0  0  0  0  0
    5.7560   46.6590   67.7450 H   0  0  0  0  0
    7.1360   45.2040   66.6800 H   0  0  0  0  0
    5.6370   44.4310   69.9340 H   0  0  0  0  0
    4.8510   46.0010   70.1100 H   0  0  0  0  0
    4.3020   44.2360   67.5700 H   0  0  0  0  0
    3.0950   42.8030   68.6150 H   0  0  0  0  0
    3.8780   43.3390   70.1400 H   0  0  0  0  0
    2.3140   44.0610   69.6310 H   0  0  0  0  0
    2.1780   45.0890   66.7170 H   0  0  0  0  0
    1.4390   46.7900   65.3650 H   0  0  0  0  0
    1.2970   47.7250   66.8540 H   0  0  0  0  0
    3.3460   48.6530   66.6200 H   0  0  0  0  0
    4.0320   47.2410   65.8270 H   0  0  0  0  0
    3.6510   48.9380   64.0820 H   0  0  0  0  0
    2.4690   47.7340   63.8060 H   0  0  0  0  0
    1.8120   49.7350   66.0970 H   0  0  0  0  0
    1.7610   50.4160   64.4350 H   0  0  0  0  0
    0.6780   49.0540   64.8820 H   0  0  0  0  0
  1  2  1  0  0  0
  1 36  1  0  0  0
  1 37  1  0  0  0
  1 38  1  0  0  0
  2  3  1  0  0  0
  3  4  2  0  0  0
  3  5  1  0  0  0
  5  6  1  0  0  0
  5 14  1  0  0  0
  5 39  1  0  0  0
  6  7  1  0  0  0
  6 40  1  0  0  0
  6 41  1  0  0  0
  7  8  1  0  0  0
  7 12  2  0  0  0
  8  9  2  0  0  0
  8 44  1  0  0  0
  9 10  1  0  0  0
  9 45  1  0  0  0
 10 11  2  0  0  0
 10 46  1  0  0  0
 11 12  1  0  0  0
 11 47  1  0  0  0
 12 13  1  0  0  0
 13 14  1  0  0  0
 13 15  1  0  0  0
 14 42  1  0  0  0
 14 43  1  0  0  0
 15 16  2  0  0  0
 15 17  1  0  0  0
 17 18  1  0  0  0
 17 48  1  0  0  0
 17 49  1  0  0  0
 18 19  1  0  0  0
 18 20  1  0  0  0
 18 21  1  0  0  0
 19 50  1  0  0  0
 19 51  1  0  0  0
 19 52  1  0  0  0
 20 53  1  0  0  0
 20 54  1  0  0  0
 20 55  1  0  0  0
 21 22  1  0  0  0
 21 56  1  0  0  0
 21 57  1  0  0  0
 22 23  1  0  0  0
 22 24  1  0  0  0
 22 58  1  0  0  0
 23 59  1  0  0  0
 23 60  1  0  0  0
 24 25  1  0  0  0
 24 26  1  0  0  0
 24 61  1  0  0  0
 25 62  1  0  0  0
 26 27  1  0  0  0
 26 63  1  0  0  0
 26 64  1  0  0  0
 27 28  1  0  0  0
 27 29  1  0  0  0
 27 65  1  0  0  0
 28 66  1  0  0  0
 28 67  1  0  0  0
 28 68  1  0  0  0
 29 30  2  0  0  0
 29 31  1  0  0  0
 31 32  1  0  0  0
 31 69  1  0  0  0
 32 33  1  0  0  0
 32 70  1  0  0  0
 32 71  1  0  0  0
 33 34  1  0  0  0
 33 72  1  0  0  0
 33 73  1  0  0  0
 34 35  1  0  0  0
 34 74  1  0  0  0
 34 75  1  0  0  0
 35 76  1  0  0  0
 35 77  1  0  0  0
 35 78  1  0  0  0
M  END
$$$$
