C61
  CCTOOLS-0919241036

 82 82  0  0  1  0  0  0  0  0999 V2000
   -9.7840    3.3620   -2.0420 C   0  0  0  0  0
   -9.4380    2.0950   -1.4790 O   0  0  0  0  0
   -8.0320    1.8470   -1.4260 C   0  0  0  0  0
   -7.7790    0.4700   -0.8090 C   0  0  0  0  0
   -6.2740    0.2050   -0.7520 C   0  0  0  0  0
   -6.0380   -1.0810   -0.1750 O   0  0  0  0  0
   -5.4390   -3.5370    0.9200 O   0  0  0  0  0
   -5.0540   -4.7950    1.4780 C   0  0  0  0  0
   -3.7200   -0.6400   -0.4740 C   0  0  0  0  0
   -4.7420   -1.4740   -0.0510 C   0  0  0  0  0
   -4.4390   -2.7150    0.5020 C   0  0  0  0  0
   -3.1170   -3.1100    0.6270 C   0  0  0  0  0
   -2.1020   -2.2730    0.2030 C   0  0  0  0  0
   -2.4030   -1.0410   -0.3470 C   0  0  0  0  0
   -1.2930   -0.1320   -0.8080 C   0  0  0  0  0
   -0.3600    0.1710    0.3660 C   0  0  0  0  0
   -1.0250    1.1860    1.2970 C   0  0  0  0  0
   -1.4490    2.4160    0.4910 C   0  0  0  0  0
   -2.2560    0.5530    1.9470 C   0  0  0  0  0
    0.9550    0.7470   -0.1630 C   0  0  0  0  0
    1.9470    0.8970    0.9920 C   0  0  0  0  0
    1.4850    1.9540    1.9010 N   0  0  0  0  0
    3.3240    1.2680    0.4370 C   0  0  0  0  0
    3.2330    2.5030   -0.2760 O   0  0  0  0  0
    4.3160    1.4180    1.5920 C   0  0  0  0  0
    5.7250    1.6230    1.0310 C   0  0  0  0  0
    6.6890    1.9400    2.1760 C   0  0  0  0  0
    6.1740    0.3660    0.3300 C   0  0  0  0  0
    5.4400   -0.5980    0.2840 O   0  0  0  0  0
    7.3920    0.3140   -0.2450 N   0  0  0  0  0
    7.8280   -0.9070   -0.9270 C   0  0  0  0  0
    9.2370   -0.7020   -1.4880 C   0  0  0  0  0
    9.6930   -1.9770   -2.1990 C   0  0  0  0  0
   11.1020   -1.7730   -2.7600 C   0  0  0  0  0
   -9.4080    3.4210   -3.0640 H   0  0  0  0  0
  -10.8680    3.4730   -2.0470 H   0  0  0  0  0
   -9.3400    4.1580   -1.4460 H   0  0  0  0  0
   -7.6190    1.8750   -2.4350 H   0  0  0  0  0
   -7.5510    2.6120   -0.8160 H   0  0  0  0  0
   -8.1920    0.4430    0.2000 H   0  0  0  0  0
   -8.2600   -0.2950   -1.4180 H   0  0  0  0  0
   -5.8610    0.2320   -1.7600 H   0  0  0  0  0
   -5.7930    0.9700   -0.1420 H   0  0  0  0  0
   -4.4960   -5.3660    0.7360 H   0  0  0  0  0
   -4.4270   -4.6270    2.3540 H   0  0  0  0  0
   -5.9450   -5.3510    1.7700 H   0  0  0  0  0
   -3.9530    0.3220   -0.9080 H   0  0  0  0  0
   -2.8800   -4.0720    1.0570 H   0  0  0  0  0
   -1.0720   -2.5820    0.3010 H   0  0  0  0  0
   -0.7290   -0.6210   -1.6030 H   0  0  0  0  0
   -1.7170    0.7990   -1.1840 H   0  0  0  0  0
   -0.1580   -0.7490    0.9160 H   0  0  0  0  0
   -0.3190    1.4860    2.0710 H   0  0  0  0  0
    1.3700    0.0760   -0.9140 H   0  0  0  0  0
    0.7690    1.7240   -0.6110 H   0  0  0  0  0
   -2.1930    2.1250   -0.2510 H   0  0  0  0  0
   -1.8760    3.1610    1.1620 H   0  0  0  0  0
   -0.5790    2.8370   -0.0140 H   0  0  0  0  0
   -1.9710   -0.3800    2.4320 H   0  0  0  0  0
   -2.6680    1.2370    2.6880 H   0  0  0  0  0
   -3.0070    0.3500    1.1830 H   0  0  0  0  0
    2.0170   -0.0450    1.5360 H   0  0  0  0  0
    2.1210    2.0690    2.6760 H   0  0  0  0  0
    1.3550    2.8240    1.4080 H   0  0  0  0  0
    3.6670    0.4840   -0.2380 H   0  0  0  0  0
    2.9330    3.2480    0.2640 H   0  0  0  0  0
    4.0390    2.2790    2.2000 H   0  0  0  0  0
    4.2970    0.5170    2.2060 H   0  0  0  0  0
    5.7170    2.4510    0.3220 H   0  0  0  0  0
    6.3160    2.7970    2.7370 H   0  0  0  0  0
    6.7640    1.0770    2.8370 H   0  0  0  0  0
    7.6730    2.1730    1.7690 H   0  0  0  0  0
    7.9790    1.0860   -0.2080 H   0  0  0  0  0
    7.8360   -1.7350   -0.2180 H   0  0  0  0  0
    7.1420   -1.1330   -1.7420 H   0  0  0  0  0
    9.2290    0.1260   -2.1960 H   0  0  0  0  0
    9.9240   -0.4760   -0.6720 H   0  0  0  0  0
    9.7010   -2.8060   -1.4900 H   0  0  0  0  0
    9.0060   -2.2040   -3.0150 H   0  0  0  0  0
   11.0940   -0.9450   -3.4690 H   0  0  0  0  0
   11.7880   -1.5460   -1.9440 H   0  0  0  0  0
   11.4270   -2.6810   -3.2670 H   0  0  0  0  0
  1  2  1  0  0  0
  1 35  1  0  0  0
  1 36  1  0  0  0
  1 37  1  0  0  0
  2  3  1  0  0  0
  3  4  1  0  0  0
  3 38  1  0  0  0
  3 39  1  0  0  0
  4  5  1  0  0  0
  4 40  1  0  0  0
  4 41  1  0  0  0
  5  6  1  0  0  0
  5 42  1  0  0  0
  5 43  1  0  0  0
  6 10  1  0  0  0
  7  8  1  0  0  0
  7 11  1  0  0  0
  8 44  1  0  0  0
  8 45  1  0  0  0
  8 46  1  0  0  0
  9 10  2  0  0  0
  9 14  1  0  0  0
  9 47  1  0  0  0
 10 11  1  0  0  0
 11 12  2  0  0  0
 12 13  1  0  0  0
 12 48  1  0  0  0
 13 14  2  0  0  0
 13 49  1  0  0  0
 14 15  1  0  0  0
 15 16  1  0  0  0
 15 50  1  0  0  0
 15 51  1  0  0  0
 16 17  1  0  0  0
 16 20  1  0  0  0
 16 52  1  0  0  0
 17 18  1  0  0  0
 17 19  1  0  0  0
 17 53  1  0  0  0
 18 56  1  0  0  0
 18 57  1  0  0  0
 18 58  1  0  0  0
 19 59  1  0  0  0
 19 60  1  0  0  0
 19 61  1  0  0  0
 20 21  1  0  0  0
 20 54  1  0  0  0
 20 55  1  0  0  0
 21 22  1  0  0  0
 21 23  1  0  0  0
 21 62  1  0  0  0
 22 63  1  0  0  0
 22 64  1  0  0  0
 23 24  1  0  0  0
 23 25  1  0  0  0
 23 65  1  0  0  0
 24 66  1  0  0  0
 25 26  1  0  0  0
 25 67  1  0  0  0
 25 68  1  0  0  0
 26 27  1  0  0  0
 26 28  1  0  0  0
 26 69  1  0  0  0
 27 70  1  0  0  0
 27 71  1  0  0  0
 27 72  1  0  0  0
 28 29  2  0  0  0
 28 30  1  0  0  0
 30 31  1  0  0  0
 30 73  1  0  0  0
 31 32  1  0  0  0
 31 74  1  0  0  0
 31 75  1  0  0  0
 32 33  1  0  0  0
 32 76  1  0  0  0
 32 77  1  0  0  0
 33 34  1  0  0  0
 33 78  1  0  0  0
 33 79  1  0  0  0
 34 80  1  0  0  0
 34 81  1  0  0  0
 34 82  1  0  0  0
M  END
$$$$
