C80
  CCTOOLS-0919241037

 78 80  0  0  1  0  0  0  0  0999 V2000
    6.3380    3.2880    0.1530 C   0  0  0  0  0
    6.7830    4.1600   -0.8220 C   0  0  0  0  0
    8.0550    4.0220   -1.3450 C   0  0  0  0  0
    8.8820    3.0110   -0.8920 C   0  0  0  0  0
    8.4370    2.1380    0.0840 C   0  0  0  0  0
    7.1670    2.2810    0.6110 C   0  0  0  0  0
    6.6840    1.3340    1.6790 C   0  0  0  0  0
    6.0360    0.1790    1.0510 N   0  0  0  0  0
    4.7040    0.0630    0.8370 C   0  0  0  0  0
    6.6970   -0.9400    0.5890 C   0  0  0  0  0
    6.1170   -3.0340   -0.4820 C   0  0  0  0  0
    5.7320   -1.8120    0.0600 C   0  0  0  0  0
    4.4350   -1.1310    0.2350 C   0  0  0  0  0
    8.0380   -1.3110    0.5650 C   0  0  0  0  0
    8.4050   -2.5240    0.0250 C   0  0  0  0  0
    7.4500   -3.3840   -0.4980 C   0  0  0  0  0
    3.1170   -1.6380   -0.1640 C   0  0  0  0  0
    3.0190   -2.7270   -0.6950 O   0  0  0  0  0
    2.0140   -0.8950    0.0600 O   0  0  0  0  0
    0.7430   -1.4590   -0.3610 C   0  0  0  0  0
   -0.3840   -0.4790   -0.0280 C   0  0  0  0  0
   -0.2140    0.7960   -0.8560 C   0  0  0  0  0
   -1.7330   -1.1240   -0.3560 C   0  0  0  0  0
   -2.8640   -0.1960    0.0920 C   0  0  0  0  0
   -2.8400   -0.0660    1.5550 N   0  0  0  0  0
   -4.2070   -0.7810   -0.3470 C   0  0  0  0  0
   -4.2300   -0.9070   -1.7700 O   0  0  0  0  0
   -5.3390    0.1470    0.1010 C   0  0  0  0  0
   -6.6870   -0.4970   -0.2270 C   0  0  0  0  0
   -6.8580   -1.7730    0.6020 C   0  0  0  0  0
   -7.7980    0.4670    0.1010 C   0  0  0  0  0
   -7.5360    1.5620    0.5530 O   0  0  0  0  0
   -9.0810    0.1130   -0.1070 N   0  0  0  0  0
  -10.1610    1.0500    0.2120 C   0  0  0  0  0
  -11.5090    0.4060   -0.1160 C   0  0  0  0  0
  -12.6370    1.3850    0.2170 C   0  0  0  0  0
  -13.9850    0.7410   -0.1110 C   0  0  0  0  0
    5.3430    3.3960    0.5610 H   0  0  0  0  0
    6.1360    4.9500   -1.1760 H   0  0  0  0  0
    8.4030    4.7030   -2.1070 H   0  0  0  0  0
    9.8760    2.9020   -1.3010 H   0  0  0  0  0
    9.0830    1.3490    0.4370 H   0  0  0  0  0
    7.5310    0.9950    2.2740 H   0  0  0  0  0
    5.9690    1.8460    2.3230 H   0  0  0  0  0
    3.9650    0.8050    1.1040 H   0  0  0  0  0
    8.7890   -0.6490    0.9680 H   0  0  0  0  0
    5.3760   -3.7060   -0.8890 H   0  0  0  0  0
    7.7530   -4.3320   -0.9180 H   0  0  0  0  0
    9.4470   -2.8080    0.0080 H   0  0  0  0  0
    0.7630   -1.6380   -1.4360 H   0  0  0  0  0
    0.5730   -2.4000    0.1620 H   0  0  0  0  0
   -0.3490   -0.2310    1.0330 H   0  0  0  0  0
   -0.2490    0.5470   -1.9170 H   0  0  0  0  0
   -1.0170    1.4930   -0.6190 H   0  0  0  0  0
    0.7470    1.2550   -0.6230 H   0  0  0  0  0
   -1.8040   -1.2910   -1.4300 H   0  0  0  0  0
   -1.8160   -2.0770    0.1670 H   0  0  0  0  0
   -2.7290    0.7860   -0.3620 H   0  0  0  0  0
   -2.9630   -0.9640    2.0000 H   0  0  0  0  0
   -1.9890    0.3780    1.8650 H   0  0  0  0  0
   -4.1160   -0.0700   -2.2410 H   0  0  0  0  0
   -5.2670    0.3140    1.1760 H   0  0  0  0  0
   -5.2550    1.1000   -0.4210 H   0  0  0  0  0
   -6.7230   -0.7460   -1.2870 H   0  0  0  0  0
   -7.8180   -2.2320    0.3680 H   0  0  0  0  0
   -6.0540   -2.4700    0.3640 H   0  0  0  0  0
   -6.8220   -1.5240    1.6620 H   0  0  0  0  0
   -9.2900   -0.7630   -0.4680 H   0  0  0  0  0
  -10.1250    1.2990    1.2720 H   0  0  0  0  0
  -10.0390    1.9590   -0.3780 H   0  0  0  0  0
  -11.5450    0.1580   -1.1770 H   0  0  0  0  0
  -11.6310   -0.5020    0.4740 H   0  0  0  0  0
  -12.6010    1.6330    1.2780 H   0  0  0  0  0
  -12.5150    2.2930   -0.3730 H   0  0  0  0  0
  -14.0210    0.4930   -1.1720 H   0  0  0  0  0
  -14.1070   -0.1680    0.4790 H   0  0  0  0  0
  -14.7880    1.4380    0.1260 H   0  0  0  0  0
   -4.3420   -1.7630    0.1070 H   0  0  0  0  0
  1 38  1  0  0  0
  1  2  1  0  0  0
  1  6  2  0  0  0
  2 39  1  0  0  0
  2  3  2  0  0  0
  3 40  1  0  0  0
  3  4  1  0  0  0
  4 41  1  0  0  0
  4  5  2  0  0  0
  5 42  1  0  0  0
  5  6  1  0  0  0
  6  7  1  0  0  0
  7 43  1  0  0  0
  7 44  1  0  0  0
  7  8  1  0  0  0
  8  9  1  0  0  0
  8 10  1  0  0  0
  9 45  1  0  0  0
  9 13  2  0  0  0
 10 12  1  0  0  0
 10 14  2  0  0  0
 11 47  1  0  0  0
 11 12  2  0  0  0
 11 16  1  0  0  0
 12 13  1  0  0  0
 13 17  1  0  0  0
 14 46  1  0  0  0
 14 15  1  0  0  0
 15 49  1  0  0  0
 15 16  2  0  0  0
 16 48  1  0  0  0
 17 18  2  0  0  0
 17 19  1  0  0  0
 19 20  1  0  0  0
 20 50  1  0  0  0
 20 51  1  0  0  0
 20 21  1  0  0  0
 21 52  1  0  0  0
 21 22  1  0  0  0
 21 23  1  0  0  0
 22 53  1  0  0  0
 22 54  1  0  0  0
 22 55  1  0  0  0
 23 56  1  0  0  0
 23 57  1  0  0  0
 23 24  1  0  0  0
 24 58  1  0  0  0
 24 25  1  0  0  0
 24 26  1  0  0  0
 25 59  1  0  0  0
 25 60  1  0  0  0
 26 78  1  0  0  0
 26 27  1  0  0  0
 26 28  1  0  0  0
 27 61  1  0  0  0
 28 62  1  0  0  0
 28 63  1  0  0  0
 28 29  1  0  0  0
 29 30  1  0  0  0
 29 31  1  0  0  0
 29 64  1  0  0  0
 30 65  1  0  0  0
 30 66  1  0  0  0
 30 67  1  0  0  0
 31 32  2  0  0  0
 31 33  1  0  0  0
 33 34  1  0  0  0
 33 68  1  0  0  0
 34 35  1  0  0  0
 34 69  1  0  0  0
 34 70  1  0  0  0
 35 36  1  0  0  0
 35 71  1  0  0  0
 35 72  1  0  0  0
 36 37  1  0  0  0
 36 73  1  0  0  0
 36 74  1  0  0  0
 37 75  1  0  0  0
 37 76  1  0  0  0
 37 77  1  0  0  0
M  END
$$$$
