HHE
  CCTOOLS-0919241028

 84 88  0  0  1  0  0  0  0  0999 V2000
   -6.3720    0.3240    0.4680 C   0  0  0  0  0
   -6.6490    1.4620   -0.5160 C   0  0  0  0  0
   -7.6200   -0.5530    0.5970 C   0  0  0  0  0
   -7.8160    2.3080   -0.0030 C   0  0  0  0  0
   -8.7870    0.2930    1.1100 C   0  0  0  0  0
   -9.0630    1.4310    0.1260 C   0  0  0  0  0
   -7.9760   -1.1370   -0.7710 C   0  0  0  0  0
   -8.2530    0.0010   -1.7550 C   0  0  0  0  0
   -7.0060    0.8780   -1.8850 C   0  0  0  0  0
   -9.4200    0.8470   -1.2420 C   0  0  0  0  0
  -10.1530    2.2210    0.6060 O   0  0  0  0  0
   -5.2550   -0.4860   -0.0240 N   0  0  0  0  0
   -0.3540   -1.2440   -0.1820 C   0  0  0  0  0
    0.9630   -0.5490    0.1690 C   0  0  0  0  0
    2.1350   -1.3840   -0.3520 C   0  0  0  0  0
    1.0700   -0.4100    1.6270 N   0  0  0  0  0
    3.4000   -0.7800    0.0880 N   0  0  0  0  0
    3.6010    0.5340   -0.5380 C   0  0  0  0  0
    4.9660    1.0610   -0.1970 C   0  0  0  0  0
    5.9460    0.2820    0.2730 N   0  0  0  0  0
    5.7710   -1.1440    0.5310 C   0  0  0  0  0
    4.5380   -1.6640   -0.2100 C   0  0  0  0  0
    4.2220   -3.0870    0.2550 C   0  0  0  0  0
    4.8070   -1.6640   -1.7160 C   0  0  0  0  0
    7.1960    0.8590    0.5270 C   0  0  0  0  0
    7.4740    1.3930    1.7780 C   0  0  0  0  0
    8.7080    1.9620    2.0270 C   0  0  0  0  0
    9.6660    2.0010    1.0310 C   0  0  0  0  0
    9.3930    1.4720   -0.2170 C   0  0  0  0  0
    8.1630    0.8950   -0.4700 C   0  0  0  0  0
    5.1890    2.2430   -0.3540 O   0  0  0  0  0
    7.8210    0.2290   -2.0370 CL  0  0  0  0  0
   -1.5260   -0.4090    0.3380 C   0  0  0  0  0
   -2.8410   -1.0090   -0.1620 C   0  0  0  0  0
   -3.9870   -0.1180    0.2450 C   0  0  0  0  0
   -3.7670    0.9300    0.8150 O   0  0  0  0  0
   -3.0330   -2.3980    0.4500 C   0  0  0  0  0
   -0.3850   -2.5380    0.4230 O   0  0  0  0  0
   -2.9390   -2.3020    1.9740 C   0  0  0  0  0
   -6.1180    0.7400    1.4430 H   0  0  0  0  0
   -5.7610    2.0870   -0.6080 H   0  0  0  0  0
   -7.4230   -1.3640    1.2980 H   0  0  0  0  0
   -7.5620    2.7240    0.9720 H   0  0  0  0  0
   -8.0130    3.1190   -0.7040 H   0  0  0  0  0
   -9.6750   -0.3320    1.2030 H   0  0  0  0  0
   -8.5330    0.7090    2.0850 H   0  0  0  0  0
   -7.1450   -1.7400   -1.1370 H   0  0  0  0  0
   -8.8650   -1.7620   -0.6790 H   0  0  0  0  0
   -8.5070   -0.4150   -2.7300 H   0  0  0  0  0
   -7.2030    1.6890   -2.5860 H   0  0  0  0  0
   -6.1740    0.2750   -2.2500 H   0  0  0  0  0
  -10.3090    0.2220   -1.1500 H   0  0  0  0  0
   -9.6170    1.6580   -1.9430 H   0  0  0  0  0
  -10.9790    1.7290    0.7120 H   0  0  0  0  0
   -5.4280   -1.2870   -0.5430 H   0  0  0  0  0
   -0.4330   -1.3470   -1.2640 H   0  0  0  0  0
    0.9870    0.4380   -0.2930 H   0  0  0  0  0
    2.0610   -2.3980    0.0410 H   0  0  0  0  0
    2.1050   -1.4120   -1.4410 H   0  0  0  0  0
    1.0500   -1.3120    2.0790 H   0  0  0  0  0
    1.9010    0.1040    1.8810 H   0  0  0  0  0
    3.5110    0.4370   -1.6200 H   0  0  0  0  0
    2.8450    1.2290   -0.1730 H   0  0  0  0  0
    6.6530   -1.6850    0.1890 H   0  0  0  0  0
    5.6440   -1.3050    1.6020 H   0  0  0  0  0
    4.0250   -3.0830    1.3270 H   0  0  0  0  0
    3.3430   -3.4550   -0.2740 H   0  0  0  0  0
    5.0720   -3.7360    0.0430 H   0  0  0  0  0
    5.6590   -2.3090   -1.9330 H   0  0  0  0  0
    3.9270   -2.0350   -2.2420 H   0  0  0  0  0
    5.0270   -0.6490   -2.0460 H   0  0  0  0  0
    6.7260    1.3630    2.5570 H   0  0  0  0  0
    8.9250    2.3770    3.0000 H   0  0  0  0  0
   10.6300    2.4470    1.2280 H   0  0  0  0  0
   10.1430    1.5050   -0.9930 H   0  0  0  0  0
   -1.5170   -0.4100    1.4280 H   0  0  0  0  0
   -1.4320    0.6150   -0.0250 H   0  0  0  0  0
   -2.8130   -1.0910   -1.2480 H   0  0  0  0  0
   -4.0130   -2.7860    0.1710 H   0  0  0  0  0
   -2.2580   -3.0690    0.0800 H   0  0  0  0  0
   -0.3190   -2.5230    1.3880 H   0  0  0  0  0
   -3.7560   -1.6870    2.3510 H   0  0  0  0  0
   -3.0060   -3.3000    2.4060 H   0  0  0  0  0
   -1.9870   -1.8490    2.2510 H   0  0  0  0  0
  1  3  1  0  0  0
  1 40  1  0  0  0
  2  9  1  0  0  0
  2  1  1  0  0  0
  2  4  1  0  0  0
  2 41  1  0  0  0
  3  7  1  0  0  0
  3  5  1  0  0  0
  3 42  1  0  0  0
  4  6  1  0  0  0
  4 43  1  0  0  0
  4 44  1  0  0  0
  5 45  1  0  0  0
  5 46  1  0  0  0
  6 10  1  0  0  0
  6  5  1  0  0  0
  6 11  1  0  0  0
  7 47  1  0  0  0
  7 48  1  0  0  0
  8  7  1  0  0  0
  8 10  1  0  0  0
  8 49  1  0  0  0
  9  8  1  0  0  0
  9 50  1  0  0  0
  9 51  1  0  0  0
 10 52  1  0  0  0
 10 53  1  0  0  0
 11 54  1  0  0  0
 12  1  1  0  0  0
 12 55  1  0  0  0
 13 33  1  0  0  0
 13 56  1  0  0  0
 14 13  1  0  0  0
 14 57  1  0  0  0
 15 14  1  0  0  0
 15 58  1  0  0  0
 15 59  1  0  0  0
 16 14  1  0  0  0
 16 60  1  0  0  0
 16 61  1  0  0  0
 17 18  1  0  0  0
 17 15  1  0  0  0
 18 62  1  0  0  0
 18 63  1  0  0  0
 19 31  2  0  0  0
 19 18  1  0  0  0
 20 19  1  0  0  0
 21 20  1  0  0  0
 21 22  1  0  0  0
 21 64  1  0  0  0
 21 65  1  0  0  0
 22 24  1  0  0  0
 22 17  1  0  0  0
 23 22  1  0  0  0
 23 66  1  0  0  0
 23 67  1  0  0  0
 23 68  1  0  0  0
 24 69  1  0  0  0
 24 70  1  0  0  0
 24 71  1  0  0  0
 25 20  1  0  0  0
 26 25  2  0  0  0
 26 72  1  0  0  0
 27 26  1  0  0  0
 27 73  1  0  0  0
 28 27  2  0  0  0
 28 29  1  0  0  0
 28 74  1  0  0  0
 29 30  2  0  0  0
 29 75  1  0  0  0
 30 25  1  0  0  0
 30 32  1  0  0  0
 33 34  1  0  0  0
 33 76  1  0  0  0
 33 77  1  0  0  0
 34 37  1  0  0  0
 34 35  1  0  0  0
 34 78  1  0  0  0
 35 12  1  0  0  0
 35 36  2  0  0  0
 37 39  1  0  0  0
 37 79  1  0  0  0
 37 80  1  0  0  0
 38 13  1  0  0  0
 38 81  1  0  0  0
 39 82  1  0  0  0
 39 83  1  0  0  0
 39 84  1  0  0  0
M  END
$$$$
