L1B
  CCTOOLS-0919241027

 49 51  0  0  0  0  0  0  0  0999 V2000
    2.1010   -1.0470    0.9980 C   0  0  0  0  0
    3.2050   -1.7740    0.8800 N   0  0  0  0  0
    4.2120   -1.3590    0.1240 C   0  0  0  0  0
    4.1640   -0.2130   -0.5390 N   0  0  0  0  0
    3.1000    0.5700   -0.4740 C   0  0  0  0  0
    2.0170    0.1790    0.3110 C   0  0  0  0  0
    1.0530   -1.4840    1.7880 N   0  0  0  0  0
    5.3450   -2.1450    0.0260 N   0  0  0  0  0
    3.0610    1.8700   -1.2350 C   0  0  0  0  0
    2.4770    1.6290   -2.6290 C   0  0  0  0  0
    0.8890    2.2910    1.0190 C   0  0  0  0  0
   -0.2080    3.0850    1.1230 C   0  0  0  0  0
   -1.4440    2.6430    0.6200 C   0  0  0  0  0
   -1.5430    1.3700    0.0040 C   0  0  0  0  0
   -0.3950    0.5670   -0.0980 C   0  0  0  0  0
    0.8050    1.0260    0.4120 C   0  0  0  0  0
   -2.5960    3.4440    0.7150 C   0  0  0  0  0
   -3.7670    2.9560    0.2050 C   0  0  0  0  0
   -3.7950    1.6960   -0.3870 C   0  0  0  0  0
   -2.7190    0.9510   -0.4740 N   0  3  0  0  0
   -2.8080   -0.3670   -1.1080 C   0  0  0  0  0
   -3.0230   -1.4360   -0.0350 C   0  0  0  0  0
   -3.1160   -2.8120   -0.6980 C   0  0  0  0  0
   -3.3170   -3.8110    0.3040 O   0  0  0  0  0
   -3.3960   -5.0660   -0.3730 C   0  0  0  0  0
    1.1210   -2.3280    2.2610 H   0  0  0  0  0
    0.2490   -0.9460    1.8690 H   0  0  0  0  0
    6.0910   -1.8550   -0.5220 H   0  0  0  0  0
    5.3950   -2.9870    0.5060 H   0  0  0  0  0
    4.0720    2.2670   -1.3290 H   0  0  0  0  0
    2.4380    2.5860   -0.6990 H   0  0  0  0  0
    3.1000    0.9130   -3.1640 H   0  0  0  0  0
    1.4660    1.2320   -2.5350 H   0  0  0  0  0
    2.4490    2.5690   -3.1790 H   0  0  0  0  0
    1.8360    2.6350    1.4080 H   0  0  0  0  0
   -0.1310    4.0540    1.5930 H   0  0  0  0  0
   -0.4510   -0.4040   -0.5670 H   0  0  0  0  0
   -2.5570    4.4190    1.1770 H   0  0  0  0  0
   -4.6690    3.5460    0.2630 H   0  0  0  0  0
   -4.7270    1.3220   -0.7850 H   0  0  0  0  0
   -3.6450   -0.3780   -1.8060 H   0  0  0  0  0
   -1.8830   -0.5740   -1.6470 H   0  0  0  0  0
   -2.1860   -1.4240    0.6620 H   0  0  0  0  0
   -3.9480   -1.2290    0.5030 H   0  0  0  0  0
   -3.9540   -2.8240   -1.3950 H   0  0  0  0  0
   -2.1920   -3.0190   -1.2360 H   0  0  0  0  0
   -4.2290   -5.0490   -1.0750 H   0  0  0  0  0
   -2.4670   -5.2440   -0.9160 H   0  0  0  0  0
   -3.5500   -5.8630    0.3540 H   0  0  0  0  0
  1  2  2  0  0  0
  1  6  1  0  0  0
  1  7  1  0  0  0
  2  3  1  0  0  0
  3  4  2  0  0  0
  3  8  1  0  0  0
  4  5  1  0  0  0
  5  6  2  0  0  0
  5  9  1  0  0  0
  6 16  1  0  0  0
  7 26  1  0  0  0
  7 27  1  0  0  0
  8 28  1  0  0  0
  8 29  1  0  0  0
  9 10  1  0  0  0
  9 30  1  0  0  0
  9 31  1  0  0  0
 10 32  1  0  0  0
 10 33  1  0  0  0
 10 34  1  0  0  0
 11 12  1  0  0  0
 11 16  2  0  0  0
 11 35  1  0  0  0
 12 13  2  0  0  0
 12 36  1  0  0  0
 13 14  1  0  0  0
 13 17  1  0  0  0
 14 15  2  0  0  0
 14 20  1  0  0  0
 15 16  1  0  0  0
 15 37  1  0  0  0
 17 18  2  0  0  0
 17 38  1  0  0  0
 18 19  1  0  0  0
 18 39  1  0  0  0
 19 20  2  0  0  0
 19 40  1  0  0  0
 20 21  1  0  0  0
 21 22  1  0  0  0
 21 41  1  0  0  0
 21 42  1  0  0  0
 22 23  1  0  0  0
 22 43  1  0  0  0
 22 44  1  0  0  0
 23 24  1  0  0  0
 23 45  1  0  0  0
 23 46  1  0  0  0
 24 25  1  0  0  0
 25 47  1  0  0  0
 25 48  1  0  0  0
 25 49  1  0  0  0
M  CHG  1  20   1
M  END
$$$$
