LIY
  CCTOOLS-0919241030

 62 65  0  0  1  0  0  0  0  0999 V2000
   -1.5410   -1.3130    1.8280 N   0  0  0  0  0
   -0.1960    0.5530    2.3740 N   0  0  0  0  0
   -0.2310   -0.2570    0.1070 C   0  0  0  0  0
   -0.3400   -1.1770   -2.2180 C   0  0  0  0  0
    2.0660    0.5210   -0.2690 C   0  0  0  0  0
    2.9530    1.5110   -0.6750 C   0  0  0  0  0
    1.0930    3.0250   -1.1990 C   0  0  0  0  0
    3.4920    3.7840   -1.5660 C   0  0  0  0  0
    1.5460    5.2810   -2.1730 C   0  0  0  0  0
   -1.4130    4.9300   -0.4280 C   0  0  0  0  0
   -1.2670   -0.3120   -3.0650 C   0  0  0  0  0
    1.6640    5.3050   -3.6920 C   0  0  0  0  0
    1.7880    6.5220   -4.3560 C   0  0  0  0  0
    1.8800    5.3490   -6.4660 C   0  0  0  0  0
    1.6470    4.1100   -4.4050 C   0  0  0  0  0
   -0.6730   -0.3690    1.4090 C   0  0  0  0  0
   -0.7370   -1.1890   -0.7770 C   0  0  0  0  0
   -1.6060   -2.1590   -0.4280 N   0  0  0  0  0
   -1.9610   -2.1630    0.8720 C   0  0  0  0  0
   -2.8710   -3.1650    1.2740 N   0  0  0  0  0
    0.7010    0.7670   -0.3160 C   0  0  0  0  0
    0.2250    1.9990   -0.7750 C   0  0  0  0  0
    2.4810    2.7570   -1.1240 C   0  0  0  0  0
    2.9090    5.1870   -1.4760 C   0  0  0  0  0
    1.8960    6.5440   -5.7460 C   0  0  0  0  0
    1.7550    4.1330   -5.7960 C   0  0  0  0  0
    0.6210    4.2490   -1.6740 N   0  0  0  0  0
   -0.8110    4.5170   -1.7650 C   0  0  0  0  0
   -0.7940    6.2080    0.1280 C   0  0  0  0  0
   -1.4030    6.5040    1.3780 O   0  0  0  0  0
   -0.8850    7.7030    1.9390 C   0  0  0  0  0
    0.4210    0.2290    3.0850 H   0  0  0  0  0
   -0.5630    1.4800    2.3750 H   0  0  0  0  0
    0.6930   -0.8140   -2.3260 H   0  0  0  0  0
   -0.3340   -2.2020   -2.6200 H   0  0  0  0  0
    2.4350   -0.4370    0.0810 H   0  0  0  0  0
    4.0220    1.3120   -0.6390 H   0  0  0  0  0
    4.3880    3.7330   -0.9360 H   0  0  0  0  0
    3.7950    3.5600   -2.5950 H   0  0  0  0  0
    1.1240    6.2610   -1.9130 H   0  0  0  0  0
   -2.4930    5.0820   -0.5480 H   0  0  0  0  0
   -1.3030    4.1240    0.3080 H   0  0  0  0  0
   -2.2990   -0.6760   -3.0170 H   0  0  0  0  0
   -0.9530   -0.3220   -4.1130 H   0  0  0  0  0
   -1.2610    0.7270   -2.7190 H   0  0  0  0  0
    1.8020    7.4570   -3.8030 H   0  0  0  0  0
    1.9640    5.3670   -7.5490 H   0  0  0  0  0
    1.5500    3.1580   -3.8910 H   0  0  0  0  0
   -2.5510   -3.9020    1.8680 H   0  0  0  0  0
   -3.7900   -3.1720    0.8830 H   0  0  0  0  0
   -0.8540    2.1370   -0.7990 H   0  0  0  0  0
    2.7810    5.4490   -0.4170 H   0  0  0  0  0
    3.6150    5.9110   -1.8980 H   0  0  0  0  0
    1.9930    7.4910   -6.2680 H   0  0  0  0  0
    1.7420    3.2020   -6.3560 H   0  0  0  0  0
   -1.2850    3.5980   -2.1220 H   0  0  0  0  0
   -0.9590    5.2950   -2.5200 H   0  0  0  0  0
    0.2820    6.0910    0.2880 H   0  0  0  0  0
   -0.9650    7.0500   -0.5500 H   0  0  0  0  0
   -0.0490    7.4640    2.6000 H   0  0  0  0  0
   -1.6730    8.2130    2.4990 H   0  0  0  0  0
   -0.5360    8.3510    1.1320 H   0  0  0  0  0
  1 16  1  0  0  0
  1 19  2  0  0  0
  2 16  1  0  0  0
  2 32  1  0  0  0
  2 33  1  0  0  0
  3 21  1  0  0  0
  3 16  2  0  0  0
  3 17  1  0  0  0
  4 17  1  0  0  0
  4 11  1  0  0  0
  4 34  1  0  0  0
  4 35  1  0  0  0
  5  6  1  0  0  0
  5 21  2  0  0  0
  5 36  1  0  0  0
  6 23  2  0  0  0
  6 37  1  0  0  0
  7 23  1  0  0  0
  7 27  1  0  0  0
  7 22  2  0  0  0
  8 24  1  0  0  0
  8 23  1  0  0  0
  8 38  1  0  0  0
  8 39  1  0  0  0
  9 12  1  0  0  0
  9 24  1  0  0  0
  9 27  1  0  0  0
  9 40  1  0  0  0
 10 28  1  0  0  0
 10 29  1  0  0  0
 10 41  1  0  0  0
 10 42  1  0  0  0
 11 43  1  0  0  0
 11 44  1  0  0  0
 11 45  1  0  0  0
 12 15  2  0  0  0
 12 13  1  0  0  0
 13 25  2  0  0  0
 13 46  1  0  0  0
 14 26  2  0  0  0
 14 25  1  0  0  0
 14 47  1  0  0  0
 15 26  1  0  0  0
 15 48  1  0  0  0
 17 18  2  0  0  0
 18 19  1  0  0  0
 19 20  1  0  0  0
 20 49  1  0  0  0
 20 50  1  0  0  0
 21 22  1  0  0  0
 22 51  1  0  0  0
 24 52  1  0  0  0
 24 53  1  0  0  0
 25 54  1  0  0  0
 26 55  1  0  0  0
 27 28  1  0  0  0
 28 56  1  0  0  0
 28 57  1  0  0  0
 29 30  1  0  0  0
 29 58  1  0  0  0
 29 59  1  0  0  0
 30 31  1  0  0  0
 31 60  1  0  0  0
 31 61  1  0  0  0
 31 62  1  0  0  0
M  END
$$$$
