PZ1
  CCTOOLS-0919241034

 84 88  0  0  1  0  0  0  0  0999 V2000
   -9.5190   -1.4590   -2.6290 C   0  0  0  0  0
   -8.3670   -0.8910   -2.0030 O   0  0  0  0  0
   -8.7490   -0.4970   -0.7600 C   0  0  0  0  0
   -7.8310    0.0920    0.0960 C   0  0  0  0  0
   -6.4080    0.3030   -0.3550 C   0  0  0  0  0
   -5.6660    0.9360    0.6900 O   0  0  0  0  0
  -10.0580   -0.6900   -0.3420 C   0  0  0  0  0
  -10.4450   -0.2890    0.9220 C   0  0  0  0  0
   -9.5280    0.3050    1.7700 C   0  0  0  0  0
   -8.2240    0.4980    1.3570 C   0  0  0  0  0
    4.9250    1.8840    0.4210 C   0  0  0  0  0
    6.1390    1.8010   -0.5060 C   0  0  0  0  0
    6.5860    3.1630   -0.8300 N   0  0  0  0  0
    5.5900    3.7220   -1.7500 C   0  0  0  0  0
    4.2130    3.6160   -1.1610 C   0  0  0  0  0
    3.9190    2.7690   -0.1660 N   0  0  0  0  0
    3.3350    4.3300   -1.5980 O   0  0  0  0  0
    4.3290    0.4870    0.6060 C   0  0  0  0  0
    5.3310   -0.3940    1.1170 O   0  0  0  0  0
    1.5780    2.2640   -0.4870 C   0  0  0  0  0
    2.6070    2.7250    0.3240 C   0  0  0  0  0
    2.3350    3.1430    1.6190 C   0  0  0  0  0
    1.0420    3.1000    2.1010 C   0  0  0  0  0
    0.0140    2.6400    1.2910 C   0  0  0  0  0
    0.2860    2.2180   -0.0020 C   0  0  0  0  0
   -1.2590    2.5980    1.7660 O   0  0  0  0  0
   -2.0540    1.9670    0.7610 C   0  0  0  0  0
   -3.4810    1.7830    1.2810 C   0  0  0  0  0
   -4.3330    1.1080    0.2040 C   0  0  0  0  0
    2.4380   -1.4280   -3.2220 C   0  0  0  0  0
    5.5110   -2.7140    1.8490 C   0  0  0  0  0
    4.9890   -3.9610    1.8590 C   0  0  0  0  0
    3.7020   -4.2020    1.3440 C   0  0  0  0  0
    2.7410   -3.0630    1.1350 C   0  0  0  0  0
    3.4540   -1.7630    0.9570 C   0  0  0  0  0
    4.7360   -1.6030    1.2950 C   0  0  0  0  0
    3.3080   -5.4630    1.0470 C   0  0  0  0  0
    2.0550   -5.6840    0.4330 C   0  0  0  0  0
    1.3570   -4.6530   -0.0880 C   0  0  0  0  0
    1.8940   -3.3770   -0.0190 N   0  0  0  0  0
    1.6260   -2.3820   -1.0600 C   0  0  0  0  0
    2.6390   -2.5440   -2.1950 C   0  0  0  0  0
    3.3050   -1.6450   -4.3370 O   0  0  0  0  0
   -9.8680   -2.3100   -2.0440 H   0  0  0  0  0
  -10.3080   -0.7100   -2.6870 H   0  0  0  0  0
   -9.2590   -1.7910   -3.6350 H   0  0  0  0  0
   -5.9550   -0.6600   -0.5910 H   0  0  0  0  0
   -6.3980    0.9360   -1.2420 H   0  0  0  0  0
  -10.7750   -1.1530   -1.0050 H   0  0  0  0  0
  -11.4640   -0.4380    1.2470 H   0  0  0  0  0
   -9.8330    0.6180    2.7580 H   0  0  0  0  0
   -7.5100    0.9620    2.0210 H   0  0  0  0  0
    5.2340    2.2780    1.3890 H   0  0  0  0  0
    6.9440    1.2620   -0.0060 H   0  0  0  0  0
    5.8630    1.2800   -1.4230 H   0  0  0  0  0
    7.4450    3.0700   -1.3520 H   0  0  0  0  0
    5.8240    4.7690   -1.9420 H   0  0  0  0  0
    5.6200    3.1710   -2.6910 H   0  0  0  0  0
    3.4970    0.5380    1.3080 H   0  0  0  0  0
    3.9720    0.1150   -0.3540 H   0  0  0  0  0
    1.7890    1.9390   -1.4950 H   0  0  0  0  0
    3.1350    3.5020    2.2500 H   0  0  0  0  0
    0.8310    3.4260    3.1090 H   0  0  0  0  0
   -0.5140    1.8590   -0.6320 H   0  0  0  0  0
   -1.6280    0.9940    0.5180 H   0  0  0  0  0
   -2.0710    2.5900   -0.1330 H   0  0  0  0  0
   -3.9080    2.7560    1.5240 H   0  0  0  0  0
   -3.4650    1.1600    2.1750 H   0  0  0  0  0
   -3.9070    0.1340   -0.0390 H   0  0  0  0  0
   -4.3500    1.7300   -0.6900 H   0  0  0  0  0
    1.4020   -1.4290   -3.5620 H   0  0  0  0  0
    2.6690   -0.4670   -2.7640 H   0  0  0  0  0
    6.4990   -2.5400    2.2500 H   0  0  0  0  0
    5.5620   -4.7740    2.2800 H   0  0  0  0  0
    2.1030   -2.9870    2.0160 H   0  0  0  0  0
    2.9150   -0.9240    0.5420 H   0  0  0  0  0
    3.9550   -6.2990    1.2690 H   0  0  0  0  0
    1.6520   -6.6840    0.3810 H   0  0  0  0  0
    0.3960   -4.8200   -0.5520 H   0  0  0  0  0
    0.6180   -2.5250   -1.4490 H   0  0  0  0  0
    1.7130   -1.3810   -0.6360 H   0  0  0  0  0
    3.6500   -2.4880   -1.7910 H   0  0  0  0  0
    2.4940   -3.5120   -2.6760 H   0  0  0  0  0
    3.2060   -0.8810   -4.9210 H   0  0  0  0  0
  1  2  1  0  0  0
  1 44  1  0  0  0
  1 45  1  0  0  0
  1 46  1  0  0  0
  2  3  1  0  0  0
  3  4  1  0  0  0
  3  7  2  0  0  0
  4  5  1  0  0  0
  4 10  2  0  0  0
  5  6  1  0  0  0
  5 47  1  0  0  0
  5 48  1  0  0  0
  6 29  1  0  0  0
  7  8  1  0  0  0
  7 49  1  0  0  0
  8  9  2  0  0  0
  8 50  1  0  0  0
  9 10  1  0  0  0
  9 51  1  0  0  0
 10 52  1  0  0  0
 11 12  1  0  0  0
 11 16  1  0  0  0
 11 18  1  0  0  0
 11 53  1  0  0  0
 12 13  1  0  0  0
 12 54  1  0  0  0
 12 55  1  0  0  0
 13 14  1  0  0  0
 13 56  1  0  0  0
 14 15  1  0  0  0
 14 57  1  0  0  0
 14 58  1  0  0  0
 15 16  1  0  0  0
 15 17  2  0  0  0
 16 21  1  0  0  0
 18 19  1  0  0  0
 18 59  1  0  0  0
 18 60  1  0  0  0
 19 36  1  0  0  0
 20 21  1  0  0  0
 20 25  2  0  0  0
 20 61  1  0  0  0
 21 22  2  0  0  0
 22 23  1  0  0  0
 22 62  1  0  0  0
 23 24  2  0  0  0
 23 63  1  0  0  0
 24 25  1  0  0  0
 24 26  1  0  0  0
 25 64  1  0  0  0
 26 27  1  0  0  0
 27 28  1  0  0  0
 27 65  1  0  0  0
 27 66  1  0  0  0
 28 29  1  0  0  0
 28 67  1  0  0  0
 28 68  1  0  0  0
 29 69  1  0  0  0
 29 70  1  0  0  0
 30 42  1  0  0  0
 30 43  1  0  0  0
 30 71  1  0  0  0
 30 72  1  0  0  0
 31 32  2  0  0  0
 31 36  1  0  0  0
 31 73  1  0  0  0
 32 33  1  0  0  0
 32 74  1  0  0  0
 33 34  1  0  0  0
 33 37  2  0  0  0
 34 35  1  0  0  0
 34 40  1  0  0  0
 34 75  1  0  0  0
 35 36  2  0  0  0
 35 76  1  0  0  0
 37 38  1  0  0  0
 37 77  1  0  0  0
 38 39  2  0  0  0
 38 78  1  0  0  0
 39 40  1  0  0  0
 39 79  1  0  0  0
 40 41  1  0  0  0
 41 42  1  0  0  0
 41 80  1  0  0  0
 41 81  1  0  0  0
 42 82  1  0  0  0
 42 83  1  0  0  0
 43 84  1  0  0  0
M  END
$$$$
