R31
  CCTOOLS-0919241039

 86 87  0  0  1  0  0  0  0  0999 V2000
    2.3720   -1.9390   -0.7650 C   0  0  0  0  0
    2.1550   -1.8040    0.6810 N   0  0  0  0  0
    3.1090   -2.6480    1.4180 C   0  0  0  0  0
    4.5120   -2.0630    1.2520 C   0  0  0  0  0
    4.7880   -1.8180   -0.1610 N   0  0  0  0  0
    3.8270   -1.7430   -1.0840 C   0  0  0  0  0
    6.1200   -1.6560   -0.5640 C   0  0  0  0  0
    6.6960   -0.3870   -0.5760 C   0  0  0  0  0
    8.0140   -0.2320   -0.9760 C   0  0  0  0  0
    8.7530   -1.3350   -1.3620 C   0  0  0  0  0
    8.1820   -2.5940   -1.3500 C   0  0  0  0  0
    6.8710   -2.7580   -0.9470 C   0  0  0  0  0
    5.9670    0.6960   -0.1970 O   0  0  0  0  0
    6.6230    1.9650   -0.2350 C   0  0  0  0  0
    5.6520    3.0550    0.2220 C   0  0  0  0  0
    6.3540    4.4140    0.1820 C   0  0  0  0  0
    5.4470    5.4320    0.6090 O   0  0  0  0  0
    6.0070    6.7470    0.6090 C   0  0  0  0  0
    0.7700   -2.1400    1.0390 C   0  0  0  0  0
   -0.1790   -1.1050    0.4310 C   0  0  0  0  0
   -1.6070   -1.3810    0.9050 C   0  0  0  0  0
    0.2270    0.2410    0.8570 N   0  0  0  0  0
   -2.5560   -0.3460    0.2970 C   0  0  0  0  0
   -1.6610   -1.2970    2.3300 O   0  0  0  0  0
   -4.0010   -0.7190    0.6330 C   0  0  0  0  0
   -4.9410    0.1980   -0.1050 C   0  0  0  0  0
   -6.2600   -0.0770   -0.1430 N   0  0  0  0  0
   -4.5110    1.1840   -0.6650 O   0  0  0  0  0
   -4.2270   -0.5770    2.1390 C   0  0  0  0  0
   -7.1580    0.7480   -0.9560 C   0  0  0  0  0
   -8.5900    0.2250   -0.8230 C   0  0  0  0  0
   -9.5130    1.0740   -1.6590 C   0  0  0  0  0
  -10.8320    0.7980   -1.6970 N   0  0  0  0  0
   -8.6510   -1.2240   -1.3080 C   0  0  0  0  0
   -9.0230    0.2920    0.6420 C   0  0  0  0  0
   -9.0690    2.0040   -2.2980 O   0  0  0  0  0
   -3.9550    0.8680    2.5620 C   0  0  0  0  0
   -5.6740   -0.9420    2.4750 C   0  0  0  0  0
    4.1410   -1.5050   -2.2310 O   0  0  0  0  0
    2.0610   -2.9330   -1.0870 H   0  0  0  0  0
    1.7820   -1.1880   -1.2910 H   0  0  0  0  0
    2.8420   -2.6640    2.4750 H   0  0  0  0  0
    3.0830   -3.6630    1.0200 H   0  0  0  0  0
    4.5800   -1.1250    1.8020 H   0  0  0  0  0
    5.2470   -2.7650    1.6470 H   0  0  0  0  0
    8.4630    0.7500   -0.9870 H   0  0  0  0  0
    9.7800   -1.2120   -1.6730 H   0  0  0  0  0
    8.7640   -3.4520   -1.6530 H   0  0  0  0  0
    6.4270   -3.7420   -0.9390 H   0  0  0  0  0
    7.4880    1.9470    0.4290 H   0  0  0  0  0
    6.9510    2.1740   -1.2530 H   0  0  0  0  0
    4.7870    3.0730   -0.4410 H   0  0  0  0  0
    5.3240    2.8460    1.2410 H   0  0  0  0  0
    7.2190    4.3960    0.8460 H   0  0  0  0  0
    6.6820    4.6230   -0.8360 H   0  0  0  0  0
    5.2560    7.4620    0.9450 H   0  0  0  0  0
    6.8640    6.7770    1.2810 H   0  0  0  0  0
    6.3270    7.0040   -0.4010 H   0  0  0  0  0
    0.5240   -3.1290    0.6530 H   0  0  0  0  0
    0.6640   -2.1370    2.1240 H   0  0  0  0  0
   -0.1380   -1.1690   -0.6570 H   0  0  0  0  0
   -1.9080   -2.3800    0.5890 H   0  0  0  0  0
   -0.3450    0.9470    0.4170 H   0  0  0  0  0
    0.1970    0.3260    1.8620 H   0  0  0  0  0
   -2.3300    0.6380    0.7060 H   0  0  0  0  0
   -2.4280   -0.3280   -0.7860 H   0  0  0  0  0
   -1.4790   -0.4130    2.6790 H   0  0  0  0  0
   -4.1890   -1.7500    0.3330 H   0  0  0  0  0
   -6.6150   -0.8220    0.3680 H   0  0  0  0  0
   -3.5510   -1.2450    2.6730 H   0  0  0  0  0
   -7.1140    1.7810   -0.6100 H   0  0  0  0  0
   -6.8490    0.7000   -2.0000 H   0  0  0  0  0
  -11.1870    0.0540   -1.1860 H   0  0  0  0  0
  -11.4260    1.3440   -2.2350 H   0  0  0  0  0
   -7.9830   -1.8380   -0.7030 H   0  0  0  0  0
   -9.6710   -1.5960   -1.2140 H   0  0  0  0  0
   -8.3420   -1.2720   -2.3520 H   0  0  0  0  0
   -8.9800    1.3250    0.9880 H   0  0  0  0  0
  -10.0440   -0.0800    0.7370 H   0  0  0  0  0
   -8.3560   -0.3220    1.2470 H   0  0  0  0  0
   -4.6850    1.5280    2.0910 H   0  0  0  0  0
   -4.0360    0.9520    3.6450 H   0  0  0  0  0
   -2.9510    1.1560    2.2490 H   0  0  0  0  0
   -5.8810   -1.9570    2.1340 H   0  0  0  0  0
   -5.8230   -0.8840    3.5530 H   0  0  0  0  0
   -6.3500   -0.2470    1.9770 H   0  0  0  0  0
  1 40  1  0  0  0
  1 41  1  0  0  0
  2  1  1  0  0  0
  2 19  1  0  0  0
  3  2  1  0  0  0
  3 42  1  0  0  0
  3 43  1  0  0  0
  4  5  1  0  0  0
  4  3  1  0  0  0
  4 44  1  0  0  0
  4 45  1  0  0  0
  5  6  1  0  0  0
  6 39  2  0  0  0
  6  1  1  0  0  0
  7  5  1  0  0  0
  8  7  2  0  0  0
  9 10  2  0  0  0
  9  8  1  0  0  0
  9 46  1  0  0  0
 10 11  1  0  0  0
 10 47  1  0  0  0
 11 12  2  0  0  0
 11 48  1  0  0  0
 12  7  1  0  0  0
 12 49  1  0  0  0
 13  8  1  0  0  0
 14 15  1  0  0  0
 14 13  1  0  0  0
 14 50  1  0  0  0
 14 51  1  0  0  0
 15 52  1  0  0  0
 15 53  1  0  0  0
 16 15  1  0  0  0
 16 54  1  0  0  0
 16 55  1  0  0  0
 17 16  1  0  0  0
 18 17  1  0  0  0
 18 56  1  0  0  0
 18 57  1  0  0  0
 18 58  1  0  0  0
 19 20  1  0  0  0
 19 59  1  0  0  0
 19 60  1  0  0  0
 20 21  1  0  0  0
 20 61  1  0  0  0
 21 23  1  0  0  0
 21 62  1  0  0  0
 22 20  1  0  0  0
 22 63  1  0  0  0
 22 64  1  0  0  0
 23 25  1  0  0  0
 23 65  1  0  0  0
 23 66  1  0  0  0
 24 21  1  0  0  0
 24 67  1  0  0  0
 25 29  1  0  0  0
 25 26  1  0  0  0
 25 68  1  0  0  0
 26 27  1  0  0  0
 26 28  2  0  0  0
 27 30  1  0  0  0
 27 69  1  0  0  0
 29 37  1  0  0  0
 29 70  1  0  0  0
 30 31  1  0  0  0
 30 71  1  0  0  0
 30 72  1  0  0  0
 31 32  1  0  0  0
 31 35  1  0  0  0
 31 34  1  0  0  0
 32 36  2  0  0  0
 33 32  1  0  0  0
 33 73  1  0  0  0
 33 74  1  0  0  0
 34 75  1  0  0  0
 34 76  1  0  0  0
 34 77  1  0  0  0
 35 78  1  0  0  0
 35 79  1  0  0  0
 35 80  1  0  0  0
 37 81  1  0  0  0
 37 82  1  0  0  0
 37 83  1  0  0  0
 38 29  1  0  0  0
 38 84  1  0  0  0
 38 85  1  0  0  0
 38 86  1  0  0  0
M  END
$$$$
