R32
  CCTOOLS-0919241039

 78 79  0  0  1  0  0  0  0  0999 V2000
   -6.8880   -0.9810    1.8610 C   0  0  0  0  0
   -6.5300   -0.7020    0.5490 C   0  0  0  0  0
   -7.4370   -0.9310   -0.4790 C   0  0  0  0  0
   -8.6920   -1.4350   -0.1910 C   0  0  0  0  0
   -9.0440   -1.7120    1.1170 C   0  0  0  0  0
   -8.1430   -1.4850    2.1420 C   0  0  0  0  0
   -5.2590   -0.1910    0.2620 N   0  0  0  0  0
   -6.9960   -0.5840   -2.1210 CL  0  0  0  0  0
   -5.0750    1.2580    0.2560 C   0  0  0  0  0
   -3.7900    1.6190   -0.4920 C   0  0  0  0  0
   -2.6880    0.8010    0.0380 N   0  0  0  0  0
   -2.8750   -0.6060   -0.3390 C   0  0  0  0  0
   -4.2670   -1.0510    0.0100 C   0  0  0  0  0
   -4.4990   -2.2400    0.0710 O   0  0  0  0  0
   -3.4750    3.1020   -0.2830 C   0  0  0  0  0
   -3.9680    1.3350   -1.9850 C   0  0  0  0  0
   -1.3880    1.3030   -0.4270 C   0  0  0  0  0
   -0.2650    0.5000    0.2320 C   0  0  0  0  0
    1.0870    1.1020   -0.1550 C   0  0  0  0  0
    2.2100    0.2990    0.5050 C   0  0  0  0  0
    3.5600    0.7650   -0.0430 C   0  0  0  0  0
    4.6450   -0.1650    0.4360 C   0  0  0  0  0
    5.8640   -0.1300   -0.1380 N   0  0  0  0  0
    6.8690   -1.1360    0.2160 C   0  0  0  0  0
    8.1540   -0.8720   -0.5710 C   0  0  0  0  0
   -0.4220    0.5470    1.6920 N   0  0  0  0  0
    1.1490    2.4590    0.2870 O   0  0  0  0  0
    3.8490    2.1840    0.4520 C   0  0  0  0  0
    4.4210   -0.9440    1.3380 O   0  0  0  0  0
    4.0030    2.1710    1.9750 C   0  0  0  0  0
    5.1430    2.6930   -0.1860 C   0  0  0  0  0
    9.1880   -1.9060   -0.2070 C   0  0  0  0  0
    7.8600   -0.9510   -2.0700 C   0  0  0  0  0
    8.6850    0.5220   -0.2280 C   0  0  0  0  0
   10.4070   -1.8720   -0.7800 N   0  0  0  0  0
    8.9230   -2.7700    0.6030 O   0  0  0  0  0
   -6.1830   -0.8080    2.6620 H   0  0  0  0  0
   -9.3980   -1.6130   -0.9890 H   0  0  0  0  0
  -10.0240   -2.1050    1.3400 H   0  0  0  0  0
   -8.4200   -1.7060    3.1620 H   0  0  0  0  0
   -5.9250    1.7280   -0.2370 H   0  0  0  0  0
   -5.0070    1.6180    1.2820 H   0  0  0  0  0
   -2.7180   -0.7170   -1.4120 H   0  0  0  0  0
   -2.1530   -1.2230    0.1970 H   0  0  0  0  0
   -2.5410    3.3490   -0.7870 H   0  0  0  0  0
   -4.2820    3.7070   -0.6970 H   0  0  0  0  0
   -3.3780    3.3060    0.7830 H   0  0  0  0  0
   -4.1990    0.2790   -2.1280 H   0  0  0  0  0
   -4.7850    1.9420   -2.3760 H   0  0  0  0  0
   -3.0470    1.5810   -2.5140 H   0  0  0  0  0
   -1.3240    1.1950   -1.5100 H   0  0  0  0  0
   -1.2880    2.3550   -0.1600 H   0  0  0  0  0
   -0.3120   -0.5350   -0.1050 H   0  0  0  0  0
    1.2040    1.0670   -1.2380 H   0  0  0  0  0
    2.1830    0.4540    1.5840 H   0  0  0  0  0
    2.0760   -0.7610    0.2870 H   0  0  0  0  0
    3.5320    0.7600   -1.1330 H   0  0  0  0  0
    6.0760    0.5600   -0.7850 H   0  0  0  0  0
    7.0790   -1.0790    1.2840 H   0  0  0  0  0
    6.4910   -2.1290   -0.0280 H   0  0  0  0  0
   -0.3820    1.4970    2.0300 H   0  0  0  0  0
   -1.2790    0.0970    1.9780 H   0  0  0  0  0
    0.9770    2.5730    1.2320 H   0  0  0  0  0
    3.0240    2.8400    0.1760 H   0  0  0  0  0
    4.8800    1.5850    2.2470 H   0  0  0  0  0
    4.1220    3.1930    2.3360 H   0  0  0  0  0
    3.1150    1.7270    2.4250 H   0  0  0  0  0
    5.0490    2.6630   -1.2720 H   0  0  0  0  0
    5.3260    3.7190    0.1340 H   0  0  0  0  0
    5.9750    2.0610    0.1240 H   0  0  0  0  0
    8.7750   -0.7630   -2.6310 H   0  0  0  0  0
    7.4820   -1.9440   -2.3140 H   0  0  0  0  0
    7.1120   -0.2030   -2.3330 H   0  0  0  0  0
    8.8950    0.5780    0.8400 H   0  0  0  0  0
    9.6000    0.7100   -0.7890 H   0  0  0  0  0
    7.9370    1.2700   -0.4920 H   0  0  0  0  0
   10.6190   -1.1810   -1.4280 H   0  0  0  0  0
   11.0720   -2.5370   -0.5460 H   0  0  0  0  0
  1  6  2  0  0  0
  1 37  1  0  0  0
  2  3  2  0  0  0
  2  1  1  0  0  0
  3  4  1  0  0  0
  4  5  2  0  0  0
  4 38  1  0  0  0
  5 39  1  0  0  0
  6  5  1  0  0  0
  6 40  1  0  0  0
  7 13  1  0  0  0
  7  2  1  0  0  0
  8  3  1  0  0  0
  9  7  1  0  0  0
  9 41  1  0  0  0
  9 42  1  0  0  0
 10 11  1  0  0  0
 10  9  1  0  0  0
 11 12  1  0  0  0
 12 13  1  0  0  0
 12 43  1  0  0  0
 12 44  1  0  0  0
 13 14  2  0  0  0
 15 10  1  0  0  0
 15 45  1  0  0  0
 15 46  1  0  0  0
 15 47  1  0  0  0
 16 10  1  0  0  0
 16 48  1  0  0  0
 16 49  1  0  0  0
 16 50  1  0  0  0
 17 18  1  0  0  0
 17 11  1  0  0  0
 17 51  1  0  0  0
 17 52  1  0  0  0
 18 53  1  0  0  0
 19 18  1  0  0  0
 19 20  1  0  0  0
 19 54  1  0  0  0
 20 55  1  0  0  0
 20 56  1  0  0  0
 21 28  1  0  0  0
 21 20  1  0  0  0
 21 57  1  0  0  0
 22 21  1  0  0  0
 22 29  2  0  0  0
 23 22  1  0  0  0
 23 58  1  0  0  0
 24 23  1  0  0  0
 24 59  1  0  0  0
 24 60  1  0  0  0
 25 34  1  0  0  0
 25 24  1  0  0  0
 26 18  1  0  0  0
 26 61  1  0  0  0
 26 62  1  0  0  0
 27 19  1  0  0  0
 27 63  1  0  0  0
 28 30  1  0  0  0
 28 64  1  0  0  0
 30 65  1  0  0  0
 30 66  1  0  0  0
 30 67  1  0  0  0
 31 28  1  0  0  0
 31 68  1  0  0  0
 31 69  1  0  0  0
 31 70  1  0  0  0
 32 25  1  0  0  0
 33 25  1  0  0  0
 33 71  1  0  0  0
 33 72  1  0  0  0
 33 73  1  0  0  0
 34 74  1  0  0  0
 34 75  1  0  0  0
 34 76  1  0  0  0
 35 32  1  0  0  0
 35 77  1  0  0  0
 35 78  1  0  0  0
 36 32  2  0  0  0
M  END
$$$$
