RPF
  CCTOOLS-0919241043

 76 80  0  0  1  0  0  0  0  0999 V2000
   10.4630   -0.5850   -2.4150 C   0  0  0  0  0
    9.1560   -0.5390   -1.8390 O   0  0  0  0  0
    9.2320    0.2810   -0.7580 C   0  0  0  0  0
    8.1020    0.5260    0.0090 C   0  0  0  0  0
    6.7910   -0.1220   -0.3520 C   0  0  0  0  0
    5.7900    0.2720    0.5890 O   0  0  0  0  0
   10.4380    0.8790   -0.4230 C   0  0  0  0  0
   10.5130    1.7120    0.6760 C   0  0  0  0  0
    9.3870    1.9500    1.4430 C   0  0  0  0  0
    8.1840    1.3550    1.1110 C   0  0  0  0  0
   -4.9210    0.8840   -0.5400 C   0  0  0  0  0
   -5.6650    1.6750    0.3200 C   0  0  0  0  0
   -5.6440    3.0580    0.1860 C   0  0  0  0  0
   -4.8840    3.6480   -0.8120 C   0  0  0  0  0
   -4.1470    2.8510   -1.6740 C   0  0  0  0  0
   -4.1650    1.4780   -1.5410 C   0  0  0  0  0
   -4.0620   -2.5200   -1.3380 C   0  0  0  0  0
   -5.4910   -3.0590   -1.4150 C   0  0  0  0  0
   -5.4720   -4.5020   -1.1340 N   0  0  0  0  0
   -5.2140   -4.6440    0.3030 C   0  0  0  0  0
   -3.9670   -3.8990    0.6860 C   0  0  0  0  0
   -3.4540   -2.9190   -0.0690 N   0  0  0  0  0
   -3.4080   -4.1910    1.7220 O   0  0  0  0  0
   -4.0890   -0.9930   -1.4310 C   0  0  0  0  0
   -4.9370   -0.4680   -0.4080 O   0  0  0  0  0
   -2.3410   -1.4510    1.4940 C   0  0  0  0  0
   -2.2970   -2.2610    0.3660 C   0  0  0  0  0
   -1.1050   -2.4180   -0.3280 C   0  0  0  0  0
    0.0340   -1.7660    0.1000 C   0  0  0  0  0
   -0.0090   -0.9610    1.2290 C   0  0  0  0  0
   -1.2000   -0.8030    1.9230 C   0  0  0  0  0
    1.1140   -0.3220    1.6520 O   0  0  0  0  0
    2.1590   -0.6790    0.7450 C   0  0  0  0  0
    3.4580    0.0100    1.1660 C   0  0  0  0  0
    4.5760   -0.3720    0.1950 C   0  0  0  0  0
   -6.0470    5.7980   -0.3210 C   0  0  0  0  0
   -6.1590    5.2870    1.1210 C   0  0  0  0  0
   -6.4020    3.8390    1.0660 N   0  0  0  0  0
   -4.8350    5.1440   -0.9840 C   0  0  0  0  0
   10.7640    0.4190   -2.7120 H   0  0  0  0  0
   11.1700   -0.9750   -1.6830 H   0  0  0  0  0
   10.4510   -1.2350   -3.2900 H   0  0  0  0  0
    6.4930    0.1930   -1.3520 H   0  0  0  0  0
    6.9030   -1.2060   -0.3310 H   0  0  0  0  0
   11.3180    0.6930   -1.0210 H   0  0  0  0  0
   11.4520    2.1780    0.9370 H   0  0  0  0  0
    9.4470    2.6020    2.3020 H   0  0  0  0  0
    7.3060    1.5430    1.7110 H   0  0  0  0  0
   -6.2590    1.2170    1.0980 H   0  0  0  0  0
   -3.5550    3.3080   -2.4530 H   0  0  0  0  0
   -3.5880    0.8630   -2.2170 H   0  0  0  0  0
   -3.4760   -2.9230   -2.1640 H   0  0  0  0  0
   -6.1140   -2.5520   -0.6780 H   0  0  0  0  0
   -5.8930   -2.8880   -2.4140 H   0  0  0  0  0
   -6.4080   -4.8420   -1.2960 H   0  0  0  0  0
   -6.0620   -4.2460    0.8620 H   0  0  0  0  0
   -5.0900   -5.6990    0.5450 H   0  0  0  0  0
   -3.0790   -0.6030   -1.3010 H   0  0  0  0  0
   -4.4700   -0.6950   -2.4080 H   0  0  0  0  0
   -3.2680   -1.3290    2.0340 H   0  0  0  0  0
   -1.0700   -3.0480   -1.2050 H   0  0  0  0  0
    0.9620   -1.8880   -0.4410 H   0  0  0  0  0
   -1.2340   -0.1730    2.8000 H   0  0  0  0  0
    1.8890   -0.3610   -0.2630 H   0  0  0  0  0
    2.2990   -1.7600    0.7590 H   0  0  0  0  0
    3.7270   -0.3080    2.1740 H   0  0  0  0  0
    3.3170    1.0910    1.1520 H   0  0  0  0  0
    4.3070   -0.0540   -0.8120 H   0  0  0  0  0
    4.7170   -1.4520    0.2090 H   0  0  0  0  0
   -5.9200    6.8810   -0.3160 H   0  0  0  0  0
   -6.9500    5.5370   -0.8720 H   0  0  0  0  0
   -5.2300    5.4850    1.6560 H   0  0  0  0  0
   -6.9890    5.7820    1.6250 H   0  0  0  0  0
   -7.0760    3.4300    1.6310 H   0  0  0  0  0
   -3.9230    5.5290   -0.5280 H   0  0  0  0  0
   -4.8340    5.3830   -2.0480 H   0  0  0  0  0
  1  2  1  0  0  0
  1 40  1  0  0  0
  1 41  1  0  0  0
  1 42  1  0  0  0
  2  3  1  0  0  0
  3  4  2  0  0  0
  3  7  1  0  0  0
  4  5  1  0  0  0
  4 10  1  0  0  0
  5  6  1  0  0  0
  5 43  1  0  0  0
  5 44  1  0  0  0
  6 35  1  0  0  0
  7  8  2  0  0  0
  7 45  1  0  0  0
  8  9  1  0  0  0
  8 46  1  0  0  0
  9 10  2  0  0  0
  9 47  1  0  0  0
 10 48  1  0  0  0
 11 12  2  0  0  0
 11 16  1  0  0  0
 11 25  1  0  0  0
 12 13  1  0  0  0
 12 49  1  0  0  0
 13 14  2  0  0  0
 13 38  1  0  0  0
 14 15  1  0  0  0
 14 39  1  0  0  0
 15 16  2  0  0  0
 15 50  1  0  0  0
 16 51  1  0  0  0
 17 18  1  0  0  0
 17 22  1  0  0  0
 17 24  1  0  0  0
 17 52  1  0  0  0
 18 19  1  0  0  0
 18 53  1  0  0  0
 18 54  1  0  0  0
 19 20  1  0  0  0
 19 55  1  0  0  0
 20 21  1  0  0  0
 20 56  1  0  0  0
 20 57  1  0  0  0
 21 22  1  0  0  0
 21 23  2  0  0  0
 22 27  1  0  0  0
 24 25  1  0  0  0
 24 58  1  0  0  0
 24 59  1  0  0  0
 26 27  2  0  0  0
 26 31  1  0  0  0
 26 60  1  0  0  0
 27 28  1  0  0  0
 28 29  2  0  0  0
 28 61  1  0  0  0
 29 30  1  0  0  0
 29 62  1  0  0  0
 30 31  2  0  0  0
 30 32  1  0  0  0
 31 63  1  0  0  0
 32 33  1  0  0  0
 33 34  1  0  0  0
 33 64  1  0  0  0
 33 65  1  0  0  0
 34 35  1  0  0  0
 34 66  1  0  0  0
 34 67  1  0  0  0
 35 68  1  0  0  0
 35 69  1  0  0  0
 36 37  1  0  0  0
 36 39  1  0  0  0
 36 70  1  0  0  0
 36 71  1  0  0  0
 37 38  1  0  0  0
 37 72  1  0  0  0
 37 73  1  0  0  0
 38 74  1  0  0  0
 39 75  1  0  0  0
 39 76  1  0  0  0
M  END
$$$$
