RX0
  CCTOOLS-0919241044

 75 78  0  0  1  0  0  0  0  0999 V2000
   -1.9090   -2.2660   -0.6680 C   0  0  0  0  0
   -3.0690   -2.9940   -0.4110 C   0  0  0  0  0
   -0.7200   -2.6140   -0.0310 C   0  0  0  0  0
   -3.0360   -4.0500    0.4770 C   0  0  0  0  0
   -0.6980   -3.6720    0.8550 C   0  0  0  0  0
   -1.8540   -4.3870    1.1110 C   0  0  0  0  0
    3.2920    0.0360    0.6120 C   0  0  0  0  0
    3.1470   -1.0900    1.0400 O   0  0  0  0  0
    2.2670    0.6610    0.0000 N   0  0  0  0  0
    1.3960    2.9410   -0.0440 C   0  0  0  0  0
    0.0060    2.3400   -0.2610 C   0  0  0  0  0
   -0.0970    1.0150    0.4890 C   0  0  0  0  0
    0.9400    0.0340   -0.0670 C   0  0  0  0  0
    2.4540    1.9860   -0.6070 C   0  0  0  0  0
   -1.4980    0.4280    0.3000 C   0  0  0  0  0
   -1.6020   -0.8000    1.0230 O   0  0  0  0  0
   -1.7420    0.1710   -1.1650 C   0  0  0  0  0
   -1.7640    1.2240   -2.0570 C   0  0  0  0  0
   -1.9390   -1.1300   -1.6220 C   0  0  0  0  0
   -1.9870    0.9900   -3.4020 C   0  0  0  0  0
   -2.1630   -1.3600   -2.9780 C   0  0  0  0  0
   -2.1900   -0.3000   -3.8600 C   0  0  0  0  0
   -2.5400    1.4180    0.8240 C   0  0  0  0  0
   -3.9370    0.8090    0.6860 C   0  0  0  0  0
   -4.9790    1.7990    1.2100 C   0  0  0  0  0
   -6.3760    1.1900    1.0720 C   0  0  0  0  0
   -7.3490    2.1150    1.5620 O   0  0  0  0  0
   -8.6950    1.6410    1.4780 C   0  0  0  0  0
    5.3570    0.8140   -0.5930 C   0  0  0  0  0
    6.8440    0.9580   -0.2070 C   0  0  0  0  0
    6.9890    0.3720    1.2080 C   0  0  0  0  0
    5.5860   -0.1080    1.6330 C   0  0  0  0  0
    4.6180    0.7350    0.7660 C   0  0  0  0  0
    7.6610    0.2290   -1.1250 O   0  0  0  0  0
    7.9240   -0.7610    1.1900 N   0  0  0  0  0
   -3.9930   -2.7320   -0.9050 H   0  0  0  0  0
    0.1840   -2.0560   -0.2300 H   0  0  0  0  0
   -3.9350   -4.6140    0.6770 H   0  0  0  0  0
    0.2240   -3.9420    1.3490 H   0  0  0  0  0
   -1.8320   -5.2140    1.8050 H   0  0  0  0  0
    1.4640    3.8980   -0.5590 H   0  0  0  0  0
    1.5660    3.0890    1.0230 H   0  0  0  0  0
   -0.7510    3.0300    0.1130 H   0  0  0  0  0
   -0.1540    2.1690   -1.3260 H   0  0  0  0  0
    0.0870    1.1820    1.5500 H   0  0  0  0  0
    0.7000   -0.2030   -1.1040 H   0  0  0  0  0
    0.9370   -0.8780    0.5280 H   0  0  0  0  0
    3.4490    2.3610   -0.3670 H   0  0  0  0  0
    2.3400    1.9120   -1.6890 H   0  0  0  0  0
   -1.4560   -0.7100    1.9740 H   0  0  0  0  0
   -1.6070    2.2330   -1.7050 H   0  0  0  0  0
   -2.0050    1.8170   -4.0960 H   0  0  0  0  0
   -2.3170   -2.3670   -3.3370 H   0  0  0  0  0
   -2.3640   -0.4770   -4.9110 H   0  0  0  0  0
   -2.3400    1.6340    1.8740 H   0  0  0  0  0
   -2.4870    2.3410    0.2470 H   0  0  0  0  0
   -4.1370    0.5930   -0.3630 H   0  0  0  0  0
   -3.9900   -0.1140    1.2630 H   0  0  0  0  0
   -4.7790    2.0150    2.2600 H   0  0  0  0  0
   -4.9260    2.7220    0.6330 H   0  0  0  0  0
   -6.5760    0.9740    0.0230 H   0  0  0  0  0
   -6.4290    0.2670    1.6500 H   0  0  0  0  0
   -9.3720    2.4000    1.8690 H   0  0  0  0  0
   -8.9430    1.4340    0.4370 H   0  0  0  0  0
   -8.7960    0.7270    2.0640 H   0  0  0  0  0
    5.0240    1.6850   -1.1580 H   0  0  0  0  0
    5.1970   -0.0970   -1.1680 H   0  0  0  0  0
    7.1290    2.0100   -0.2060 H   0  0  0  0  0
    7.3450    1.1390    1.8960 H   0  0  0  0  0
    5.4640   -1.1690    1.4180 H   0  0  0  0  0
    5.4190    0.0900    2.6920 H   0  0  0  0  0
    4.4840    1.7300    1.1920 H   0  0  0  0  0
    7.5970    0.5380   -2.0390 H   0  0  0  0  0
    8.8420   -0.4670    0.8920 H   0  0  0  0  0
    7.9630   -1.2120    2.0920 H   0  0  0  0  0
  1 19  1  0  0  0
  2  1  2  0  0  0
  2 36  1  0  0  0
  3  1  1  0  0  0
  3 37  1  0  0  0
  4  2  1  0  0  0
  4 38  1  0  0  0
  5  3  2  0  0  0
  5 39  1  0  0  0
  6  4  2  0  0  0
  6  5  1  0  0  0
  6 40  1  0  0  0
  7  9  1  0  0  0
  8  7  2  0  0  0
  9 13  1  0  0  0
  9 14  1  0  0  0
 10 11  1  0  0  0
 10 41  1  0  0  0
 10 42  1  0  0  0
 11 43  1  0  0  0
 11 44  1  0  0  0
 12 11  1  0  0  0
 12 15  1  0  0  0
 12 45  1  0  0  0
 13 12  1  0  0  0
 13 46  1  0  0  0
 13 47  1  0  0  0
 14 10  1  0  0  0
 14 48  1  0  0  0
 14 49  1  0  0  0
 15 17  1  0  0  0
 15 16  1  0  0  0
 16 50  1  0  0  0
 17 18  1  0  0  0
 18 20  2  0  0  0
 18 51  1  0  0  0
 19 17  2  0  0  0
 19 21  1  0  0  0
 20 52  1  0  0  0
 21 22  2  0  0  0
 21 53  1  0  0  0
 22 20  1  0  0  0
 22 54  1  0  0  0
 23 15  1  0  0  0
 23 24  1  0  0  0
 23 55  1  0  0  0
 23 56  1  0  0  0
 24 57  1  0  0  0
 24 58  1  0  0  0
 25 24  1  0  0  0
 25 26  1  0  0  0
 25 59  1  0  0  0
 25 60  1  0  0  0
 26 61  1  0  0  0
 26 62  1  0  0  0
 27 26  1  0  0  0
 28 27  1  0  0  0
 28 63  1  0  0  0
 28 64  1  0  0  0
 28 65  1  0  0  0
 29 33  1  0  0  0
 29 66  1  0  0  0
 29 67  1  0  0  0
 30 29  1  0  0  0
 30 31  1  0  0  0
 30 68  1  0  0  0
 31 32  1  0  0  0
 31 69  1  0  0  0
 32 33  1  0  0  0
 32 70  1  0  0  0
 32 71  1  0  0  0
 33  7  1  0  0  0
 33 72  1  0  0  0
 34 30  1  0  0  0
 34 73  1  0  0  0
 35 31  1  0  0  0
 35 74  1  0  0  0
 35 75  1  0  0  0
M  END
$$$$
