RX5
  CCTOOLS-0919241044

 77 79  0  0  1  0  0  0  0  0999 V2000
   -4.9790    1.7250    1.2870 C   0  0  0  0  0
   -5.1330    0.2640    1.2890 N   0  0  0  0  0
   -1.0510    0.2820   -1.2050 O   0  0  0  0  0
   -5.0510   -0.2760   -0.0750 C   0  0  0  0  0
   -2.6250   -0.4070    0.2030 N   0  0  0  0  0
    3.7740   -0.5380    1.1380 O   0  0  0  0  0
   -3.6900    0.0730   -0.6800 C   0  0  0  0  0
   -0.3560   -0.5610    0.7290 N   0  0  0  0  0
    6.5940   -4.2300    0.0540 O   0  0  0  0  0
   -1.3340   -0.2110   -0.1300 C   0  0  0  0  0
    5.7400   -2.1940   -0.1900 N   0  0  0  0  0
    6.2390   -3.5440   -2.0270 O   0  0  0  0  0
    1.0490   -0.2530    0.4300 C   0  0  0  0  0
    1.6500    0.5120    1.6130 C   0  0  0  0  0
    1.4430   -0.2960    2.8960 C   0  0  0  0  0
   -0.0550   -0.4790    3.1490 C   0  0  0  0  0
   -0.6750   -1.2510    1.9870 C   0  0  0  0  0
    3.1470    0.7230    1.3770 C   0  0  0  0  0
   -6.1620    0.3340   -0.9320 C   0  0  0  0  0
   -7.5230   -0.1180   -0.3990 C   0  0  0  0  0
   -7.6640   -1.6320   -0.5720 C   0  0  0  0  0
   -8.9580   -2.0430   -0.1270 O   0  0  0  0  0
  -10.0390   -1.4560   -0.8540 C   0  0  0  0  0
   -9.9940    0.0660   -0.6930 C   0  0  0  0  0
   -8.6380    0.5830   -1.1820 C   0  0  0  0  0
    5.1370   -0.6000    1.5630 C   0  0  0  0  0
    5.7030   -1.9880    1.2600 C   0  0  0  0  0
    6.2050   -3.3550   -0.6950 C   0  0  0  0  0
    3.3460    1.6180    0.1810 C   0  0  0  0  0
    3.6210    2.9610    0.3610 C   0  0  0  0  0
    3.8050    3.7820   -0.7370 C   0  0  0  0  0
    3.7130    3.2590   -2.0150 C   0  0  0  0  0
    3.4380    1.9160   -2.1930 C   0  0  0  0  0
    3.2600    1.0950   -1.0950 C   0  0  0  0  0
    6.7520   -4.8180   -2.4990 C   0  0  0  0  0
    4.1490    5.4680   -0.5130 CL  0  0  0  0  0
   -4.0090    1.9870    0.8650 H   0  0  0  0  0
   -5.7700    2.1730    0.6860 H   0  0  0  0  0
   -5.0430    2.0990    2.3090 H   0  0  0  0  0
   -4.4510   -0.1700    1.8920 H   0  0  0  0  0
   -5.1680   -1.3590   -0.0440 H   0  0  0  0  0
   -2.8490   -0.8670    1.0270 H   0  0  0  0  0
   -3.5950   -0.4020   -1.6570 H   0  0  0  0  0
   -3.6090    1.1540   -0.7930 H   0  0  0  0  0
    5.4300   -1.4960   -0.7870 H   0  0  0  0  0
    1.6020   -1.1800    0.2760 H   0  0  0  0  0
    1.1050    0.3610   -0.4690 H   0  0  0  0  0
    1.1560    1.4800    1.7080 H   0  0  0  0  0
    1.9160   -1.2720    2.7900 H   0  0  0  0  0
    1.8920    0.2350    3.7360 H   0  0  0  0  0
   -0.2010   -1.0350    4.0760 H   0  0  0  0  0
   -0.5320    0.4980    3.2310 H   0  0  0  0  0
   -1.7570   -1.2950    2.1150 H   0  0  0  0  0
   -0.2660   -2.2610    1.9630 H   0  0  0  0  0
    3.5910    1.1890    2.2570 H   0  0  0  0  0
   -6.0980    1.4210   -0.8910 H   0  0  0  0  0
   -6.0480    0.0020   -1.9640 H   0  0  0  0  0
   -7.6040    0.1370    0.6580 H   0  0  0  0  0
   -7.5420   -1.8910   -1.6240 H   0  0  0  0  0
   -6.8990   -2.1380    0.0180 H   0  0  0  0  0
   -9.9480   -1.7120   -1.9100 H   0  0  0  0  0
  -10.9850   -1.8350   -0.4680 H   0  0  0  0  0
  -10.7910    0.5180   -1.2830 H   0  0  0  0  0
  -10.1250    0.3240    0.3580 H   0  0  0  0  0
   -8.5780    1.6590   -1.0180 H   0  0  0  0  0
   -8.5280    0.3680   -2.2450 H   0  0  0  0  0
    5.7180    0.1540    1.0320 H   0  0  0  0  0
    5.1920   -0.4120    2.6350 H   0  0  0  0  0
    5.0700   -2.7480    1.7190 H   0  0  0  0  0
    6.7130   -2.0650    1.6630 H   0  0  0  0  0
    3.6920    3.3680    1.3580 H   0  0  0  0  0
    3.8560    3.8990   -2.8720 H   0  0  0  0  0
    3.3660    1.5070   -3.1900 H   0  0  0  0  0
    3.0500    0.0450   -1.2350 H   0  0  0  0  0
    6.7240   -4.8390   -3.5890 H   0  0  0  0  0
    7.7800   -4.9430   -2.1590 H   0  0  0  0  0
    6.1370   -5.6260   -2.1040 H   0  0  0  0  0
  1  2  1  0  0  0
  1 37  1  0  0  0
  1 38  1  0  0  0
  1 39  1  0  0  0
  2  4  1  0  0  0
  2 40  1  0  0  0
  3 10  2  0  0  0
  4  7  1  0  0  0
  4 19  1  0  0  0
  4 41  1  0  0  0
  5  7  1  0  0  0
  5 10  1  0  0  0
  5 42  1  0  0  0
  6 18  1  0  0  0
  6 26  1  0  0  0
  7 43  1  0  0  0
  7 44  1  0  0  0
  8 10  1  0  0  0
  8 13  1  0  0  0
  8 17  1  0  0  0
  9 28  2  0  0  0
 11 27  1  0  0  0
 11 28  1  0  0  0
 11 45  1  0  0  0
 12 28  1  0  0  0
 12 35  1  0  0  0
 13 14  1  0  0  0
 13 46  1  0  0  0
 13 47  1  0  0  0
 14 15  1  0  0  0
 14 18  1  0  0  0
 14 48  1  0  0  0
 15 16  1  0  0  0
 15 49  1  0  0  0
 15 50  1  0  0  0
 16 17  1  0  0  0
 16 51  1  0  0  0
 16 52  1  0  0  0
 17 53  1  0  0  0
 17 54  1  0  0  0
 18 29  1  0  0  0
 18 55  1  0  0  0
 19 20  1  0  0  0
 19 56  1  0  0  0
 19 57  1  0  0  0
 20 21  1  0  0  0
 20 25  1  0  0  0
 20 58  1  0  0  0
 21 22  1  0  0  0
 21 59  1  0  0  0
 21 60  1  0  0  0
 22 23  1  0  0  0
 23 24  1  0  0  0
 23 61  1  0  0  0
 23 62  1  0  0  0
 24 25  1  0  0  0
 24 63  1  0  0  0
 24 64  1  0  0  0
 25 65  1  0  0  0
 25 66  1  0  0  0
 26 27  1  0  0  0
 26 67  1  0  0  0
 26 68  1  0  0  0
 27 69  1  0  0  0
 27 70  1  0  0  0
 29 30  2  0  0  0
 29 34  1  0  0  0
 30 31  1  0  0  0
 30 71  1  0  0  0
 31 32  2  0  0  0
 31 36  1  0  0  0
 32 33  1  0  0  0
 32 72  1  0  0  0
 33 34  2  0  0  0
 33 73  1  0  0  0
 34 74  1  0  0  0
 35 75  1  0  0  0
 35 76  1  0  0  0
 35 77  1  0  0  0
M  END
$$$$
