RX6
  CCTOOLS-0919241044

 77 79  0  0  1  0  0  0  0  0999 V2000
   -2.6120   -0.7150    1.3890 C   0  0  0  0  0
   -4.5140    2.7760    0.0150 N   0  0  0  0  0
    5.7290    2.5870   -1.8750 O   0  0  0  0  0
   -4.8620    5.7590   -2.0380 C   0  0  0  0  0
   -4.6220    4.3710   -1.6840 O   0  0  0  0  0
   -2.8780   -1.4340    0.0910 C   0  0  0  0  0
   -2.9820    0.6580    1.2580 O   0  0  0  0  0
   -3.4020   -2.7120    0.1030 C   0  0  0  0  0
   -2.6030   -0.8110   -1.1130 C   0  0  0  0  0
   -3.6460   -3.3720   -1.0890 C   0  0  0  0  0
   -2.8470   -1.4690   -2.3040 C   0  0  0  0  0
   -3.3660   -2.7500   -2.2920 C   0  0  0  0  0
   -4.7240    4.0470   -0.3810 C   0  0  0  0  0
   -4.3040   -4.9780   -1.0730 CL  0  0  0  0  0
    4.3610   -1.1270   -0.2160 C   0  0  0  0  0
    4.3690   -2.6490   -0.0590 C   0  0  0  0  0
    5.7330   -0.5670    0.1670 C   0  0  0  0  0
    3.0200   -3.1740   -0.3100 N   0  0  0  0  0
   -5.0040    4.9000    0.4370 O   0  0  0  0  0
    5.7650    0.9370   -0.1090 C   0  0  0  0  0
    7.0900    1.5210    0.3880 C   0  0  0  0  0
    7.1440    3.0110    0.0370 C   0  0  0  0  0
    6.9660    3.1780   -1.4740 C   0  0  0  0  0
    5.6400    1.1840   -1.6150 C   0  0  0  0  0
    3.3370   -0.5510    0.6590 N   0  0  0  0  0
    2.0590   -0.4710    0.2390 C   0  0  0  0  0
    1.7720   -0.7900   -0.8990 O   0  0  0  0  0
    1.0990   -0.0390    1.0810 N   0  0  0  0  0
    0.6100   -0.3210    3.4550 C   0  0  0  0  0
   -0.8730   -0.1940    3.1020 C   0  0  0  0  0
   -1.1230   -0.8120    1.7290 C   0  0  0  0  0
   -0.3130   -0.0510    0.6740 C   0  0  0  0  0
    1.4440    0.4470    2.4240 C   0  0  0  0  0
    2.9900   -4.6360   -0.1670 C   0  0  0  0  0
   -4.3400    0.9300    1.6100 C   0  0  0  0  0
   -4.6240    2.4230    1.4330 C   0  0  0  0  0
   -3.1970   -1.1750    2.1850 H   0  0  0  0  0
   -4.2900    2.0950   -0.6380 H   0  0  0  0  0
   -4.1430    6.3950   -1.5210 H   0  0  0  0  0
   -4.7490    5.8840   -3.1150 H   0  0  0  0  0
   -5.8730    6.0400   -1.7440 H   0  0  0  0  0
   -3.6200   -3.1970    1.0430 H   0  0  0  0  0
   -2.1980    0.1900   -1.1220 H   0  0  0  0  0
   -2.6330   -0.9810   -3.2430 H   0  0  0  0  0
   -3.5560   -3.2640   -3.2230 H   0  0  0  0  0
    4.1400   -0.8700   -1.2520 H   0  0  0  0  0
    5.0680   -3.0840   -0.7730 H   0  0  0  0  0
    4.6770   -2.9070    0.9550 H   0  0  0  0  0
    5.9150   -0.7460    1.2260 H   0  0  0  0  0
    6.5040   -1.0610   -0.4240 H   0  0  0  0  0
    2.3430   -2.7370    0.2970 H   0  0  0  0  0
    4.9370    1.4210    0.4100 H   0  0  0  0  0
    7.1600    1.3980    1.4690 H   0  0  0  0  0
    7.9200    1.0030   -0.0930 H   0  0  0  0  0
    6.3430    3.5370    0.5580 H   0  0  0  0  0
    8.1070    3.4220    0.3380 H   0  0  0  0  0
    7.7890    2.6860   -1.9930 H   0  0  0  0  0
    6.9600    4.2390   -1.7240 H   0  0  0  0  0
    4.6790    0.8090   -1.9670 H   0  0  0  0  0
    6.4460    0.6670   -2.1360 H   0  0  0  0  0
    3.5790   -0.2260    1.5400 H   0  0  0  0  0
    0.7860    0.0990    4.4450 H   0  0  0  0  0
    0.8970   -1.3730    3.4490 H   0  0  0  0  0
   -1.4700   -0.7190    3.8480 H   0  0  0  0  0
   -1.1540    0.8590    3.0880 H   0  0  0  0  0
   -0.8200   -1.8590    1.7400 H   0  0  0  0  0
   -0.6810    0.9730    0.6000 H   0  0  0  0  0
   -0.4120   -0.5480   -0.2910 H   0  0  0  0  0
    2.5040    0.2780    2.6120 H   0  0  0  0  0
    1.2220    1.5120    2.4950 H   0  0  0  0  0
    3.2880   -4.9080    0.8450 H   0  0  0  0  0
    1.9800   -4.9990   -0.3590 H   0  0  0  0  0
    3.6790   -5.0850   -0.8820 H   0  0  0  0  0
   -5.0050    0.3550    0.9660 H   0  0  0  0  0
   -4.5090    0.6500    2.6500 H   0  0  0  0  0
   -3.9010    3.0010    2.0090 H   0  0  0  0  0
   -5.6310    2.6460    1.7860 H   0  0  0  0  0
  1  6  1  0  0  0
  1  7  1  0  0  0
  1 31  1  0  0  0
  1 37  1  0  0  0
  2 13  1  0  0  0
  2 36  1  0  0  0
  2 38  1  0  0  0
  3 23  1  0  0  0
  3 24  1  0  0  0
  4  5  1  0  0  0
  4 39  1  0  0  0
  4 40  1  0  0  0
  4 41  1  0  0  0
  5 13  1  0  0  0
  6  8  2  0  0  0
  6  9  1  0  0  0
  7 35  1  0  0  0
  8 10  1  0  0  0
  8 42  1  0  0  0
  9 11  2  0  0  0
  9 43  1  0  0  0
 10 12  2  0  0  0
 10 14  1  0  0  0
 11 12  1  0  0  0
 11 44  1  0  0  0
 12 45  1  0  0  0
 13 19  2  0  0  0
 15 16  1  0  0  0
 15 17  1  0  0  0
 15 25  1  0  0  0
 15 46  1  0  0  0
 16 18  1  0  0  0
 16 47  1  0  0  0
 16 48  1  0  0  0
 17 20  1  0  0  0
 17 49  1  0  0  0
 17 50  1  0  0  0
 18 34  1  0  0  0
 18 51  1  0  0  0
 20 21  1  0  0  0
 20 24  1  0  0  0
 20 52  1  0  0  0
 21 22  1  0  0  0
 21 53  1  0  0  0
 21 54  1  0  0  0
 22 23  1  0  0  0
 22 55  1  0  0  0
 22 56  1  0  0  0
 23 57  1  0  0  0
 23 58  1  0  0  0
 24 59  1  0  0  0
 24 60  1  0  0  0
 25 26  1  0  0  0
 25 61  1  0  0  0
 26 27  2  0  0  0
 26 28  1  0  0  0
 28 32  1  0  0  0
 28 33  1  0  0  0
 29 30  1  0  0  0
 29 33  1  0  0  0
 29 62  1  0  0  0
 29 63  1  0  0  0
 30 31  1  0  0  0
 30 64  1  0  0  0
 30 65  1  0  0  0
 31 32  1  0  0  0
 31 66  1  0  0  0
 32 67  1  0  0  0
 32 68  1  0  0  0
 33 69  1  0  0  0
 33 70  1  0  0  0
 34 71  1  0  0  0
 34 72  1  0  0  0
 34 73  1  0  0  0
 35 36  1  0  0  0
 35 74  1  0  0  0
 35 75  1  0  0  0
 36 76  1  0  0  0
 36 77  1  0  0  0
M  END
$$$$
