S51
  CCTOOLS-0919241027

 55 59  0  0  0  0  0  0  0  0999 V2000
   -5.0030   -1.3080   -1.6730 C   0  0  0  0  0
   -4.8250   -1.2330   -0.3030 C   0  0  0  0  0
   -3.5530   -1.1350    0.2250 C   0  0  0  0  0
   -2.4520   -1.1120   -0.6200 C   0  0  0  0  0
   -2.6330   -1.1880   -1.9950 C   0  0  0  0  0
   -3.9080   -1.2850   -2.5170 C   0  0  0  0  0
   -1.1600   -1.0120   -0.0870 N   0  0  0  0  0
   -0.5570   -1.9700    0.7040 C   0  0  0  0  0
    0.7250   -1.4990    1.0310 C   0  0  0  0  0
    0.8520   -0.1830    0.3780 C   0  0  0  0  0
   -0.3220    0.0380   -0.2800 C   0  0  0  0  0
   -0.9720   -3.2070    1.1840 C   0  0  0  0  0
   -0.1270   -3.9580    1.9720 C   0  0  0  0  0
    1.1390   -3.4920    2.2950 C   0  0  0  0  0
    1.5680   -2.2680    1.8290 C   0  0  0  0  0
   -1.2000    2.3350   -0.1950 C   0  0  0  0  0
   -0.3700    3.3220    0.3030 C   0  0  0  0  0
   -0.8840    4.3080    1.1240 C   0  0  0  0  0
   -2.2280    4.3070    1.4470 C   0  0  0  0  0
   -3.0590    3.3210    0.9480 C   0  0  0  0  0
   -2.5440    2.3340    0.1280 C   0  0  0  0  0
    2.0160    0.7110    0.4230 C   0  0  0  0  0
    3.0060    0.5760   -0.4820 N   0  0  0  0  0
    2.0870    1.5750    1.2780 O   0  0  0  0  0
    4.1260    1.5280   -0.5240 C   0  0  0  0  0
    5.4380    0.7360   -0.5070 C   0  0  0  0  0
    5.4230   -0.2530   -1.5920 N   0  0  0  0  0
    4.3500   -1.2380   -1.4010 C   0  0  0  0  0
    2.9970   -0.5310   -1.4500 C   0  0  0  0  0
   -0.6410    1.2640   -1.0960 C   0  0  0  0  0
   -5.9980   -1.3890   -2.0830 H   0  0  0  0  0
   -5.6820   -1.2520    0.3540 H   0  0  0  0  0
   -3.4150   -1.0760    1.2950 H   0  0  0  0  0
   -1.7780   -1.1690   -2.6550 H   0  0  0  0  0
   -4.0500   -1.3440   -3.5860 H   0  0  0  0  0
   -1.9560   -3.5800    0.9390 H   0  0  0  0  0
   -0.4540   -4.9190    2.3420 H   0  0  0  0  0
    1.7910   -4.0910    2.9130 H   0  0  0  0  0
    2.5550   -1.9080    2.0820 H   0  0  0  0  0
    0.6800    3.3220    0.0510 H   0  0  0  0  0
   -0.2360    5.0780    1.5140 H   0  0  0  0  0
   -2.6300    5.0770    2.0890 H   0  0  0  0  0
   -4.1090    3.3200    1.2010 H   0  0  0  0  0
   -3.1930    1.5630   -0.2620 H   0  0  0  0  0
    4.0680    2.1220   -1.4360 H   0  0  0  0  0
    4.0820    2.1830    0.3460 H   0  0  0  0  0
    6.2760    1.4190   -0.6490 H   0  0  0  0  0
    5.5420    0.2250    0.4500 H   0  0  0  0  0
    5.3440    0.1970   -2.4920 H   0  0  0  0  0
    4.3990   -1.9880   -2.1900 H   0  0  0  0  0
    4.4700   -1.7220   -0.4310 H   0  0  0  0  0
    2.2070   -1.2370   -1.1920 H   0  0  0  0  0
    2.8280   -0.1390   -2.4530 H   0  0  0  0  0
    0.2680    1.6290   -1.5740 H   0  0  0  0  0
   -1.3760    1.0110   -1.8600 H   0  0  0  0  0
  1  2  2  0  0  0
  1  6  1  0  0  0
  1 31  1  0  0  0
  2  3  1  0  0  0
  2 32  1  0  0  0
  3  4  2  0  0  0
  3 33  1  0  0  0
  4  5  1  0  0  0
  4  7  1  0  0  0
  5  6  2  0  0  0
  5 34  1  0  0  0
  6 35  1  0  0  0
  7  8  1  0  0  0
  7 11  1  0  0  0
  8  9  2  0  0  0
  8 12  1  0  0  0
  9 10  1  0  0  0
  9 15  1  0  0  0
 10 11  2  0  0  0
 10 22  1  0  0  0
 11 30  1  0  0  0
 12 13  2  0  0  0
 12 36  1  0  0  0
 13 14  1  0  0  0
 13 37  1  0  0  0
 14 15  2  0  0  0
 14 38  1  0  0  0
 15 39  1  0  0  0
 16 17  2  0  0  0
 16 21  1  0  0  0
 16 30  1  0  0  0
 17 18  1  0  0  0
 17 40  1  0  0  0
 18 19  2  0  0  0
 18 41  1  0  0  0
 19 20  1  0  0  0
 19 42  1  0  0  0
 20 21  2  0  0  0
 20 43  1  0  0  0
 21 44  1  0  0  0
 22 23  1  0  0  0
 22 24  2  0  0  0
 23 25  1  0  0  0
 23 29  1  0  0  0
 25 26  1  0  0  0
 25 45  1  0  0  0
 25 46  1  0  0  0
 26 27  1  0  0  0
 26 47  1  0  0  0
 26 48  1  0  0  0
 27 28  1  0  0  0
 27 49  1  0  0  0
 28 29  1  0  0  0
 28 50  1  0  0  0
 28 51  1  0  0  0
 29 52  1  0  0  0
 29 53  1  0  0  0
 30 54  1  0  0  0
 30 55  1  0  0  0
M  END
$$$$
