S52
  CCTOOLS-0919241027

 53 57  0  0  0  0  0  0  0  0999 V2000
    4.9350   -0.2020   -1.9550 C   0  0  0  0  0
    0.2540    1.2450   -0.6090 O   0  0  0  0  0
    3.7890   -0.2220   -2.7290 C   0  0  0  0  0
    2.5610   -0.4580   -2.1430 C   0  0  0  0  0
    2.4780   -0.6750   -0.7740 C   0  0  0  0  0
    3.6300   -0.6540    0.0010 C   0  0  0  0  0
    4.8550   -0.4170   -0.5910 C   0  0  0  0  0
    1.2340   -0.9130   -0.1760 N   0  0  0  0  0
    0.8660   -2.0990    0.4380 C   0  0  0  0  0
   -0.4460   -1.9490    0.9120 C   0  0  0  0  0
   -0.8600   -0.5810    0.5450 C   0  0  0  0  0
    0.2180   -0.0100   -0.1100 C   0  0  0  0  0
    1.5300   -3.3040    0.6400 C   0  0  0  0  0
    0.8980   -4.3360    1.3010 C   0  0  0  0  0
   -0.3990   -4.1860    1.7690 C   0  0  0  0  0
   -1.0730   -2.9990    1.5780 C   0  0  0  0  0
    0.6980    2.2410    0.2030 C   0  0  0  0  0
    0.6550    3.5590   -0.2280 C   0  0  0  0  0
    1.1070    4.5700    0.5980 C   0  0  0  0  0
    1.6030    4.2680    1.8540 C   0  0  0  0  0
    1.6470    2.9550    2.2850 C   0  0  0  0  0
    1.1910    1.9420    1.4650 C   0  0  0  0  0
   -2.1510    0.0480    0.8230 C   0  0  0  0  0
   -3.1880   -0.1430   -0.0160 N   0  0  0  0  0
   -2.2890    0.7450    1.8120 O   0  0  0  0  0
   -4.5230    0.3880    0.3010 C   0  0  0  0  0
   -5.0320    1.1800   -0.9080 C   0  0  0  0  0
   -4.9680    0.3330   -2.1070 N   0  0  0  0  0
   -3.5830   -0.0440   -2.4200 C   0  0  0  0  0
   -3.0140   -0.8820   -1.2760 C   0  0  0  0  0
    5.8940   -0.0220   -2.4170 H   0  0  0  0  0
    3.8550   -0.0540   -3.7940 H   0  0  0  0  0
    1.6670   -0.4730   -2.7480 H   0  0  0  0  0
    3.5680   -0.8220    1.0660 H   0  0  0  0  0
    5.7510   -0.4010    0.0110 H   0  0  0  0  0
    2.5400   -3.4320    0.2790 H   0  0  0  0  0
    1.4180   -5.2710    1.4550 H   0  0  0  0  0
   -0.8820   -5.0030    2.2850 H   0  0  0  0  0
   -2.0830   -2.8840    1.9430 H   0  0  0  0  0
    0.2690    3.7960   -1.2090 H   0  0  0  0  0
    1.0740    5.5960    0.2640 H   0  0  0  0  0
    1.9560    5.0600    2.4980 H   0  0  0  0  0
    2.0350    2.7220    3.2660 H   0  0  0  0  0
    1.2210    0.9170    1.8040 H   0  0  0  0  0
   -5.2050   -0.4370    0.5110 H   0  0  0  0  0
   -4.4600    1.0440    1.1690 H   0  0  0  0  0
   -6.0630    1.4870   -0.7340 H   0  0  0  0  0
   -4.4080    2.0620   -1.0530 H   0  0  0  0  0
   -5.5510   -0.4840   -2.0040 H   0  0  0  0  0
   -3.5640   -0.6250   -3.3420 H   0  0  0  0  0
   -2.9800    0.8550   -2.5430 H   0  0  0  0  0
   -1.9540   -1.0640   -1.4490 H   0  0  0  0  0
   -3.5480   -1.8310   -1.2200 H   0  0  0  0  0
  1  3  2  0  0  0
  1  7  1  0  0  0
  1 31  1  0  0  0
  2 12  1  0  0  0
  2 17  1  0  0  0
  3  4  1  0  0  0
  3 32  1  0  0  0
  4  5  2  0  0  0
  4 33  1  0  0  0
  5  6  1  0  0  0
  5  8  1  0  0  0
  6  7  2  0  0  0
  6 34  1  0  0  0
  7 35  1  0  0  0
  8  9  1  0  0  0
  8 12  1  0  0  0
  9 10  2  0  0  0
  9 13  1  0  0  0
 10 11  1  0  0  0
 10 16  1  0  0  0
 11 12  2  0  0  0
 11 23  1  0  0  0
 13 14  2  0  0  0
 13 36  1  0  0  0
 14 15  1  0  0  0
 14 37  1  0  0  0
 15 16  2  0  0  0
 15 38  1  0  0  0
 16 39  1  0  0  0
 17 18  2  0  0  0
 17 22  1  0  0  0
 18 19  1  0  0  0
 18 40  1  0  0  0
 19 20  2  0  0  0
 19 41  1  0  0  0
 20 21  1  0  0  0
 20 42  1  0  0  0
 21 22  2  0  0  0
 21 43  1  0  0  0
 22 44  1  0  0  0
 23 24  1  0  0  0
 23 25  2  0  0  0
 24 26  1  0  0  0
 24 30  1  0  0  0
 26 27  1  0  0  0
 26 45  1  0  0  0
 26 46  1  0  0  0
 27 28  1  0  0  0
 27 47  1  0  0  0
 27 48  1  0  0  0
 28 29  1  0  0  0
 28 49  1  0  0  0
 29 30  1  0  0  0
 29 50  1  0  0  0
 29 51  1  0  0  0
 30 52  1  0  0  0
 30 53  1  0  0  0
M  END
$$$$
