S53
  CCTOOLS-0919241027

 68 73  0  0  0  0  0  0  0  0999 V2000
   -2.8350    1.3560    2.4480 N   0  0  0  0  0
   -2.4900    0.4380    1.5670 C   0  0  0  0  0
   -1.2000    0.4070    1.0560 C   0  0  0  0  0
   -0.2800    1.3740    1.5020 C   0  0  0  0  0
   -0.6990    2.3210    2.4350 C   0  0  0  0  0
   -1.9910    2.2760    2.8840 C   0  0  0  0  0
   -0.5500   -0.4060    0.1460 N   0  0  0  0  0
    0.7410   -0.0050   -0.0110 C   0  0  0  0  0
    0.9810    1.0940    0.7990 C   0  0  0  0  0
   -1.1370   -1.4900   -0.5200 C   0  0  0  0  0
   -1.3550   -2.6850    0.1530 C   0  0  0  0  0
   -1.9340   -3.7510   -0.5060 C   0  0  0  0  0
   -2.2960   -3.6310   -1.8350 C   0  0  0  0  0
   -2.0790   -2.4430   -2.5090 C   0  0  0  0  0
   -1.5060   -1.3700   -1.8540 C   0  0  0  0  0
   -3.5020   -0.5820    1.1120 C   0  0  0  0  0
   -4.4960    0.0740    0.1880 C   0  0  0  0  0
   -4.2980    0.0350   -1.1800 C   0  0  0  0  0
   -5.2090    0.6370   -2.0270 C   0  0  0  0  0
   -6.3180    1.2770   -1.5070 C   0  0  0  0  0
   -6.5160    1.3160   -0.1400 C   0  0  0  0  0
   -5.6080    0.7090    0.7080 C   0  0  0  0  0
    1.6460   -0.5880   -0.8270 O   0  0  0  0  0
    2.4200   -1.5820   -0.3160 C   0  0  0  0  0
    2.2060   -2.0320    0.9780 C   0  0  0  0  0
    2.9940   -3.0440    1.4960 C   0  0  0  0  0
    3.9960   -3.6060    0.7220 C   0  0  0  0  0
    4.2090   -3.1580   -0.5680 C   0  0  0  0  0
    3.4200   -2.1510   -1.0910 C   0  0  0  0  0
    3.6500   -1.6680   -2.5000 C   0  0  0  0  0
    2.7880   -3.4830    2.7570 F   0  0  0  0  0
    2.2390    1.8310    0.9280 C   0  0  0  0  0
    2.5300    2.8250    0.0660 N   0  0  0  0  0
    3.0230    1.5450    1.8150 O   0  0  0  0  0
    3.8090    3.5460    0.1490 C   0  0  0  0  0
    4.4570    3.5500   -1.2400 C   0  0  0  0  0
    3.5030    4.0870   -2.2200 N   0  0  0  0  0
    2.3120    3.2340   -2.3280 C   0  0  0  0  0
    1.5790    3.2130   -0.9870 C   0  0  0  0  0
   -0.0170    3.0760    2.7970 H   0  0  0  0  0
   -2.3270    3.0040    3.6070 H   0  0  0  0  0
   -1.0720   -2.7800    1.1910 H   0  0  0  0  0
   -2.1050   -4.6810    0.0170 H   0  0  0  0  0
   -2.7490   -4.4660   -2.3490 H   0  0  0  0  0
   -2.3630   -2.3510   -3.5470 H   0  0  0  0  0
   -1.3410   -0.4410   -2.3790 H   0  0  0  0  0
   -2.9930   -1.3880    0.5840 H   0  0  0  0  0
   -4.0240   -0.9870    1.9780 H   0  0  0  0  0
   -3.4310   -0.4650   -1.5860 H   0  0  0  0  0
   -5.0550    0.6070   -3.0960 H   0  0  0  0  0
   -7.0300    1.7480   -2.1690 H   0  0  0  0  0
   -7.3830    1.8170    0.2670 H   0  0  0  0  0
   -5.7620    0.7390    1.7760 H   0  0  0  0  0
    1.4260   -1.5920    1.5820 H   0  0  0  0  0
    4.6110   -4.3960    1.1270 H   0  0  0  0  0
    4.9910   -3.5980   -1.1700 H   0  0  0  0  0
    4.3730   -0.8530   -2.4910 H   0  0  0  0  0
    4.0340   -2.4880   -3.1070 H   0  0  0  0  0
    2.7080   -1.3150   -2.9210 H   0  0  0  0  0
    3.6310    4.5710    0.4720 H   0  0  0  0  0
    4.4670    3.0440    0.8580 H   0  0  0  0  0
    5.3510    4.1740   -1.2230 H   0  0  0  0  0
    4.7290    2.5320   -1.5180 H   0  0  0  0  0
    3.2480    5.0370   -1.9930 H   0  0  0  0  0
    1.6510    3.6280   -3.0990 H   0  0  0  0  0
    2.6140    2.2200   -2.5910 H   0  0  0  0  0
    0.7640    2.4910   -1.0280 H   0  0  0  0  0
    1.1830    4.2060   -0.7750 H   0  0  0  0  0
  1  2  2  0  0  0
  1  6  1  0  0  0
  2  3  1  0  0  0
  3  4  2  0  0  0
  3  7  1  0  0  0
  4  9  1  0  0  0
  5  4  1  0  0  0
  5 40  1  0  0  0
  6  5  2  0  0  0
  6 41  1  0  0  0
  7  8  1  0  0  0
  8 23  1  0  0  0
  9  8  2  0  0  0
  9 32  1  0  0  0
 10  7  1  0  0  0
 10 15  1  0  0  0
 11 10  2  0  0  0
 11 42  1  0  0  0
 12 11  1  0  0  0
 12 13  2  0  0  0
 12 43  1  0  0  0
 13 14  1  0  0  0
 13 44  1  0  0  0
 14 15  2  0  0  0
 14 45  1  0  0  0
 15 46  1  0  0  0
 16  2  1  0  0  0
 16 47  1  0  0  0
 16 48  1  0  0  0
 17 16  1  0  0  0
 18 17  1  0  0  0
 18 49  1  0  0  0
 19 18  2  0  0  0
 19 50  1  0  0  0
 20 19  1  0  0  0
 20 21  2  0  0  0
 20 51  1  0  0  0
 21 22  1  0  0  0
 21 52  1  0  0  0
 22 17  2  0  0  0
 22 53  1  0  0  0
 23 24  1  0  0  0
 24 29  2  0  0  0
 24 25  1  0  0  0
 25 26  2  0  0  0
 25 54  1  0  0  0
 26 31  1  0  0  0
 26 27  1  0  0  0
 27 55  1  0  0  0
 28 27  2  0  0  0
 28 56  1  0  0  0
 29 28  1  0  0  0
 30 29  1  0  0  0
 30 57  1  0  0  0
 30 58  1  0  0  0
 30 59  1  0  0  0
 32 33  1  0  0  0
 33 35  1  0  0  0
 33 39  1  0  0  0
 34 32  2  0  0  0
 35 36  1  0  0  0
 35 60  1  0  0  0
 35 61  1  0  0  0
 36 37  1  0  0  0
 36 62  1  0  0  0
 36 63  1  0  0  0
 37 64  1  0  0  0
 38 37  1  0  0  0
 38 65  1  0  0  0
 38 66  1  0  0  0
 39 38  1  0  0  0
 39 67  1  0  0  0
 39 68  1  0  0  0
M  END
$$$$
