SSR
  CCTOOLS-0919241031

 62 66  0  0  0  0  0  0  0  0999 V2000
    3.9010    2.4110    0.9110 C   0  0  0  0  0
    3.6690    1.0840    0.6230 C   0  0  0  0  0
    2.4640    0.6970    0.0470 C   0  0  0  0  0
    1.4910    1.6680   -0.2370 C   0  0  0  0  0
    1.7330    3.0070    0.0570 C   0  0  0  0  0
    2.9360    3.3740    0.6300 C   0  0  0  0  0
    1.9550   -0.5270   -0.3470 N   0  0  0  0  0
    0.7100   -0.3760   -0.8630 C   0  0  0  0  0
    0.3540    0.9400   -0.8310 C   0  0  0  0  0
    0.6890    4.0510   -0.2470 C   0  0  0  0  0
    3.1790    4.6810    0.9200 O   0  0  0  0  0
   -0.9130    1.5200   -1.2960 C   0  0  0  0  0
   -1.8420    1.9130   -0.4030 N   0  0  0  0  0
   -3.1620    2.3880   -0.8450 C   0  0  0  0  0
   -4.2400    1.6210   -0.0720 C   0  0  0  0  0
   -3.9860    1.7470    1.3700 N   0  0  0  0  0
   -2.7040    1.1330    1.7400 C   0  0  0  0  0
   -1.5650    1.8740    1.0410 C   0  0  0  0  0
   -1.1240    1.6440   -2.4880 O   0  0  0  0  0
    2.6280   -1.7500   -0.2280 C   0  0  0  0  0
    2.9320   -2.2570    1.0280 C   0  0  0  0  0
    3.5960   -3.4630    1.1420 C   0  0  0  0  0
    3.9590   -4.1640    0.0070 C   0  0  0  0  0
    3.6590   -3.6610   -1.2450 C   0  0  0  0  0
    2.9890   -2.4590   -1.3660 C   0  0  0  0  0
   -0.1510   -1.4940   -1.3930 C   0  0  0  0  0
   -1.1140   -1.9370   -0.3210 C   0  0  0  0  0
   -2.4760   -1.8170   -0.5250 C   0  0  0  0  0
   -3.3610   -2.2240    0.4600 C   0  0  0  0  0
   -2.8800   -2.7500    1.6470 C   0  0  0  0  0
   -1.5170   -2.8690    1.8480 C   0  0  0  0  0
   -0.6350   -2.4680    0.8620 C   0  0  0  0  0
   -2.9980   -1.2440   -1.8170 C   0  0  0  0  0
   -4.6920   -2.1070    0.2620 F   0  0  0  0  0
    4.8360    2.7050    1.3620 H   0  0  0  0  0
    4.4240    0.3440    0.8440 H   0  0  0  0  0
    0.0330    4.1700    0.6150 H   0  0  0  0  0
    1.1780    5.0000   -0.4660 H   0  0  0  0  0
    0.1020    3.7370   -1.1100 H   0  0  0  0  0
    3.5970    5.1720    0.2000 H   0  0  0  0  0
   -3.2540    3.4550   -0.6420 H   0  0  0  0  0
   -3.2770    2.2050   -1.9140 H   0  0  0  0  0
   -5.2200    2.0360   -0.3060 H   0  0  0  0  0
   -4.2120    0.5690   -0.3560 H   0  0  0  0  0
   -4.0230    2.7120    1.6610 H   0  0  0  0  0
   -2.5700    1.1940    2.8200 H   0  0  0  0  0
   -2.6970    0.0880    1.4310 H   0  0  0  0  0
   -0.6260    1.3520    1.2200 H   0  0  0  0  0
   -1.5010    2.8910    1.4290 H   0  0  0  0  0
    2.6490   -1.7100    1.9160 H   0  0  0  0  0
    3.8320   -3.8590    2.1190 H   0  0  0  0  0
    4.4790   -5.1060    0.0980 H   0  0  0  0  0
    3.9440   -4.2100   -2.1300 H   0  0  0  0  0
    2.7500   -2.0690   -2.3440 H   0  0  0  0  0
   -0.7090   -1.1430   -2.2610 H   0  0  0  0  0
    0.4810   -2.3330   -1.6820 H   0  0  0  0  0
   -3.5690   -3.0680    2.4150 H   0  0  0  0  0
   -1.1420   -3.2790    2.7730 H   0  0  0  0  0
    0.4290   -2.5650    1.0180 H   0  0  0  0  0
   -3.0420   -2.0290   -2.5710 H   0  0  0  0  0
   -3.9960   -0.8370   -1.6570 H   0  0  0  0  0
   -2.3320   -0.4500   -2.1570 H   0  0  0  0  0
  1  2  2  0  0  0
  1  6  1  0  0  0
  1 35  1  0  0  0
  2  3  1  0  0  0
  2 36  1  0  0  0
  3  4  2  0  0  0
  3  7  1  0  0  0
  4  5  1  0  0  0
  4  9  1  0  0  0
  5  6  2  0  0  0
  5 10  1  0  0  0
  6 11  1  0  0  0
  7  8  1  0  0  0
  7 20  1  0  0  0
  8  9  2  0  0  0
  8 26  1  0  0  0
  9 12  1  0  0  0
 10 37  1  0  0  0
 10 38  1  0  0  0
 10 39  1  0  0  0
 11 40  1  0  0  0
 12 13  1  0  0  0
 12 19  2  0  0  0
 13 14  1  0  0  0
 13 18  1  0  0  0
 14 15  1  0  0  0
 14 41  1  0  0  0
 14 42  1  0  0  0
 15 16  1  0  0  0
 15 43  1  0  0  0
 15 44  1  0  0  0
 16 17  1  0  0  0
 16 45  1  0  0  0
 17 18  1  0  0  0
 17 46  1  0  0  0
 17 47  1  0  0  0
 18 48  1  0  0  0
 18 49  1  0  0  0
 20 21  2  0  0  0
 20 25  1  0  0  0
 21 22  1  0  0  0
 21 50  1  0  0  0
 22 23  2  0  0  0
 22 51  1  0  0  0
 23 24  1  0  0  0
 23 52  1  0  0  0
 24 25  2  0  0  0
 24 53  1  0  0  0
 25 54  1  0  0  0
 26 27  1  0  0  0
 26 55  1  0  0  0
 26 56  1  0  0  0
 27 28  2  0  0  0
 27 32  1  0  0  0
 28 29  1  0  0  0
 28 33  1  0  0  0
 29 30  2  0  0  0
 29 34  1  0  0  0
 30 31  1  0  0  0
 30 57  1  0  0  0
 31 32  2  0  0  0
 31 58  1  0  0  0
 32 59  1  0  0  0
 33 60  1  0  0  0
 33 61  1  0  0  0
 33 62  1  0  0  0
M  END
$$$$
