UA4
  CCTOOLS-0919241038

 62 65  0  0  1  0  0  0  0  0999 V2000
    1.4050    3.4230   -3.0430 C   0  0  0  0  0
   -2.2500    1.2250   -4.1460 C   0  0  0  0  0
   -0.5640   -2.0220   -0.4760 C   0  0  0  0  0
   -0.4430   -2.6520   -2.8220 C   0  0  0  0  0
   -0.0380   -3.4440   -5.1470 C   0  0  0  0  0
   -0.5380   -2.5870   -7.4830 C   0  0  0  0  0
   -1.1320   -1.7660   -9.6030 C   0  0  0  0  0
   -4.0180   -4.6060   -3.4080 C   0  0  0  0  0
   -5.7930   -2.7430   -0.1790 F   0  0  0  0  0
   -5.2170   -3.3490   -1.2260 C   0  0  0  0  0
   -3.9020   -3.8050   -1.1320 C   0  0  0  0  0
   -5.9320   -3.5210   -2.4110 C   0  0  0  0  0
   -5.3330   -4.1500   -3.5020 C   0  0  0  0  0
   -6.0190   -4.3160   -4.6400 F   0  0  0  0  0
   -3.3110   -4.4310   -2.2240 C   0  0  0  0  0
   -1.8600   -4.9320   -2.1210 C   0  0  0  0  0
   -1.9040   -6.3890   -1.6210 C   0  0  0  0  0
   -1.1140   -4.9080   -3.4710 C   0  0  0  0  0
   -1.0990   -5.8930   -4.2120 O   0  0  0  0  0
   -0.5580   -3.6720   -3.8040 N   0  0  0  0  0
   -1.0680   -2.8100   -6.0720 C   0  0  0  0  0
   -1.5580   -1.9790   -8.2640 O   0  0  0  0  0
    0.0060   -1.3570   -3.1210 C   0  0  0  0  0
   -0.7340   -2.9640   -1.4930 C   0  0  0  0  0
   -1.1460   -4.2110   -1.1110 O   0  0  0  0  0
   -0.1250   -0.7380   -0.7860 C   0  0  0  0  0
    0.1560   -0.4050   -2.1080 C   0  0  0  0  0
    0.6000    0.9330   -2.4350 C   0  0  0  0  0
   -0.2910    1.9380   -2.7530 C   0  0  0  0  0
   -1.7640    1.6820   -2.7750 C   0  0  0  0  0
    1.9330    1.2930   -2.4510 C   0  0  0  0  0
    2.9080    0.3130   -2.1340 N   0  0  0  0  0
    2.3720    2.5330   -2.7510 N   0  0  0  0  0
    0.0780    3.1990   -3.0620 N   0  0  0  0  0
    1.8290    4.7310   -3.3620 N   0  0  0  0  0
   -2.0430    1.9830   -4.9100 H   0  0  0  0  0
   -3.3290    1.0440   -4.1320 H   0  0  0  0  0
   -1.7540    0.2970   -4.4510 H   0  0  0  0  0
   -0.7780   -2.2820    0.5580 H   0  0  0  0  0
    0.2710   -4.4180   -5.5390 H   0  0  0  0  0
    0.8530   -2.8130   -5.0580 H   0  0  0  0  0
    0.3340   -1.9240   -7.4790 H   0  0  0  0  0
   -0.2620   -3.5370   -7.9500 H   0  0  0  0  0
   -1.4440   -0.7720   -9.9320 H   0  0  0  0  0
   -1.5700   -2.5300  -10.2510 H   0  0  0  0  0
   -0.0430   -1.8360   -9.6450 H   0  0  0  0  0
   -3.5590   -5.0950   -4.2640 H   0  0  0  0  0
   -3.3530   -3.6650   -0.2050 H   0  0  0  0  0
   -6.9560   -3.1660   -2.4840 H   0  0  0  0  0
   -2.9270   -6.6740   -1.3570 H   0  0  0  0  0
   -1.5450   -7.0730   -2.3950 H   0  0  0  0  0
   -1.2740   -6.5110   -0.7350 H   0  0  0  0  0
   -1.9540   -3.4550   -6.1230 H   0  0  0  0  0
   -1.4170   -1.8540   -5.6590 H   0  0  0  0  0
    0.2490   -1.0640   -4.1380 H   0  0  0  0  0
    0.0010    0.0020   -0.0020 H   0  0  0  0  0
   -2.0290    0.9210   -2.0250 H   0  0  0  0  0
   -2.3130    2.5890   -2.4790 H   0  0  0  0  0
    3.8050    0.3720   -2.5630 H   0  0  0  0  0
    2.6430   -0.4610   -1.5660 H   0  0  0  0  0
    1.9810    4.9730   -4.3200 H   0  0  0  0  0
    2.0590    5.3620   -2.6220 H   0  0  0  0  0
  1 35  1  0  0  0
  1 34  2  0  0  0
  1 33  1  0  0  0
  2 30  1  0  0  0
  2 36  1  0  0  0
  2 37  1  0  0  0
  2 38  1  0  0  0
  3 26  2  0  0  0
  3 24  1  0  0  0
  3 39  1  0  0  0
  4 23  1  0  0  0
  4 20  1  0  0  0
  4 24  2  0  0  0
  5 21  1  0  0  0
  5 20  1  0  0  0
  5 40  1  0  0  0
  5 41  1  0  0  0
  6 22  1  0  0  0
  6 21  1  0  0  0
  6 42  1  0  0  0
  6 43  1  0  0  0
  7 22  1  0  0  0
  7 44  1  0  0  0
  7 45  1  0  0  0
  7 46  1  0  0  0
  8 15  2  0  0  0
  8 13  1  0  0  0
  8 47  1  0  0  0
  9 10  1  0  0  0
 10 11  2  0  0  0
 10 12  1  0  0  0
 11 15  1  0  0  0
 11 48  1  0  0  0
 12 13  2  0  0  0
 12 49  1  0  0  0
 13 14  1  0  0  0
 15 16  1  0  0  0
 16 18  1  0  0  0
 16 25  1  0  0  0
 16 17  1  0  0  0
 17 50  1  0  0  0
 17 51  1  0  0  0
 17 52  1  0  0  0
 18 20  1  0  0  0
 18 19  2  0  0  0
 21 53  1  0  0  0
 21 54  1  0  0  0
 23 27  2  0  0  0
 23 55  1  0  0  0
 24 25  1  0  0  0
 26 27  1  0  0  0
 26 56  1  0  0  0
 27 28  1  0  0  0
 28 29  2  0  0  0
 28 31  1  0  0  0
 29 34  1  0  0  0
 29 30  1  0  0  0
 30 57  1  0  0  0
 30 58  1  0  0  0
 31 33  2  0  0  0
 31 32  1  0  0  0
 32 59  1  0  0  0
 32 60  1  0  0  0
 35 61  1  0  0  0
 35 62  1  0  0  0
M  END
$$$$
