VYD
  CCTOOLS-0919241028

 68 70  0  0  1  0  0  0  0  0999 V2000
    6.9500    2.4840   -0.2770 C   0  0  0  0  0
    7.9090    1.7130    0.3530 C   0  0  0  0  0
    5.6660    1.9990   -0.4370 C   0  0  0  0  0
    7.5870    0.4530    0.8240 C   0  0  0  0  0
    5.3400    0.7330    0.0300 C   0  0  0  0  0
    6.3050   -0.0380    0.6670 C   0  0  0  0  0
    3.1440    0.4750    0.8330 C   0  0  0  0  0
   -4.8040   -0.3560   -0.0310 C   0  0  0  0  0
    1.7330   -0.0360    0.7730 C   0  0  0  0  0
   -2.3660   -0.7400   -0.2850 C   0  0  0  0  0
   -3.4040    1.3620   -1.1450 C   0  0  0  0  0
   -1.0250    1.0160   -1.4480 C   0  0  0  0  0
    3.7240   -0.5100   -1.3430 C   0  0  0  0  0
   -3.4530    0.3100   -0.0350 C   0  0  0  0  0
   -1.0020   -0.0470   -0.3460 C   0  0  0  0  0
    2.4450   -1.3270   -1.1360 C   0  0  0  0  0
    2.7170   -2.4630   -0.1480 C   0  0  0  0  0
    1.9850   -1.9090   -2.4740 C   0  0  0  0  0
   -9.7780   -0.8620    1.6120 C   0  0  0  0  0
  -10.7810    1.1680    0.5530 C   0  0  0  0  0
    0.0830   -1.0800   -0.6560 C   0  0  0  0  0
   -8.3160    0.7800    0.4250 C   0  0  0  0  0
   -7.2310   -0.2700    0.1750 C   0  0  0  0  0
   -9.6880    0.1040    0.4280 C   0  0  0  0  0
   -2.0800    1.9970   -1.1620 N   0  0  0  0  0
    4.0410    0.2390   -0.1310 N   0  0  0  0  0
    1.4020   -0.4370   -0.6010 N   0  0  0  0  0
   -5.9170    0.3780    0.1720 N   0  0  0  0  0
    3.4830    1.1330    1.7940 O   0  0  0  0  0
   -4.8920   -1.5520   -0.2110 O   0  0  0  0  0
    5.9020   -1.6190    1.2600 CL  0  0  0  0  0
    7.2030    3.4690   -0.6410 H   0  0  0  0  0
    8.9110    2.0950    0.4770 H   0  0  0  0  0
    4.9160    2.6050   -0.9250 H   0  0  0  0  0
    8.3390   -0.1470    1.3150 H   0  0  0  0  0
    1.6310   -0.8970    1.4350 H   0  0  0  0  0
    1.0490    0.7500    1.0940 H   0  0  0  0  0
   -2.3690   -1.4670    0.5270 H   0  0  0  0  0
   -2.5610   -1.2470   -1.2300 H   0  0  0  0  0
   -3.5900    0.8840   -2.1070 H   0  0  0  0  0
   -4.1670    2.1190   -0.9620 H   0  0  0  0  0
   -0.0600    1.5210   -1.4850 H   0  0  0  0  0
   -1.2220    0.5390   -2.4080 H   0  0  0  0  0
    4.5490   -1.1820   -1.5790 H   0  0  0  0  0
    3.5790    0.1850   -2.1700 H   0  0  0  0  0
   -3.2800    0.7890    0.9290 H   0  0  0  0  0
   -0.7910    0.4270    0.6120 H   0  0  0  0  0
    3.0390   -2.0460    0.8060 H   0  0  0  0  0
    1.8060   -3.0430   -0.0020 H   0  0  0  0  0
    3.5000   -3.1100   -0.5450 H   0  0  0  0  0
    2.8090   -2.4540   -2.9350 H   0  0  0  0  0
    1.1480   -2.5870   -2.3070 H   0  0  0  0  0
    1.6710   -1.0990   -3.1340 H   0  0  0  0  0
   -9.0000   -1.6200    1.5220 H   0  0  0  0  0
   -9.6430   -0.3100    2.5420 H   0  0  0  0  0
  -10.7560   -1.3430    1.6140 H   0  0  0  0  0
  -10.6450    1.7190    1.4840 H   0  0  0  0  0
  -10.7160    1.8550   -0.2900 H   0  0  0  0  0
  -11.7580    0.6860    0.5560 H   0  0  0  0  0
    0.0390   -1.8840    0.0800 H   0  0  0  0  0
   -0.0810   -1.4910   -1.6520 H   0  0  0  0  0
   -8.1440    1.2570    1.3890 H   0  0  0  0  0
   -8.2830    1.5310   -0.3640 H   0  0  0  0  0
   -7.2640   -1.0210    0.9630 H   0  0  0  0  0
   -7.4030   -0.7470   -0.7900 H   0  0  0  0  0
   -9.8240   -0.4480   -0.5020 H   0  0  0  0  0
   -1.8990    2.4800   -0.2950 H   0  0  0  0  0
   -5.8470    1.3340    0.3160 H   0  0  0  0  0
  1  3  1  0  0  0
  1 32  1  0  0  0
  2  1  2  0  0  0
  2  4  1  0  0  0
  2 33  1  0  0  0
  3  5  2  0  0  0
  3 34  1  0  0  0
  4  6  2  0  0  0
  4 35  1  0  0  0
  5 26  1  0  0  0
  6  5  1  0  0  0
  6 31  1  0  0  0
  7 29  2  0  0  0
  7  9  1  0  0  0
  8 30  2  0  0  0
  8 28  1  0  0  0
  9 36  1  0  0  0
  9 37  1  0  0  0
 10 14  1  0  0  0
 10 38  1  0  0  0
 10 39  1  0  0  0
 11 14  1  0  0  0
 11 40  1  0  0  0
 11 41  1  0  0  0
 12 15  1  0  0  0
 12 25  1  0  0  0
 12 42  1  0  0  0
 12 43  1  0  0  0
 13 26  1  0  0  0
 13 16  1  0  0  0
 13 44  1  0  0  0
 13 45  1  0  0  0
 14  8  1  0  0  0
 14 46  1  0  0  0
 15 10  1  0  0  0
 15 47  1  0  0  0
 16 18  1  0  0  0
 16 27  1  0  0  0
 17 16  1  0  0  0
 17 48  1  0  0  0
 17 49  1  0  0  0
 17 50  1  0  0  0
 18 51  1  0  0  0
 18 52  1  0  0  0
 18 53  1  0  0  0
 19 24  1  0  0  0
 19 54  1  0  0  0
 19 55  1  0  0  0
 19 56  1  0  0  0
 20 24  1  0  0  0
 20 57  1  0  0  0
 20 58  1  0  0  0
 20 59  1  0  0  0
 21 15  1  0  0  0
 21 60  1  0  0  0
 21 61  1  0  0  0
 22 24  1  0  0  0
 22 62  1  0  0  0
 22 63  1  0  0  0
 23 22  1  0  0  0
 23 64  1  0  0  0
 23 65  1  0  0  0
 24 66  1  0  0  0
 25 11  1  0  0  0
 25 67  1  0  0  0
 26  7  1  0  0  0
 27  9  1  0  0  0
 27 21  1  0  0  0
 28 23  1  0  0  0
 28 68  1  0  0  0
M  END
$$$$
