VYE
  CCTOOLS-0919241028

 65 67  0  0  1  0  0  0  0  0999 V2000
   -2.8300    0.8860    0.1880 C   0  0  0  0  0
   -3.1520    1.9970   -0.8140 C   0  0  0  0  0
   -2.1390    3.0550   -0.7160 N   0  0  0  0  0
   -0.8030    2.5440   -1.0500 C   0  0  0  0  0
   -0.4110    1.4500   -0.0550 C   0  0  0  0  0
   -1.4410    0.3180   -0.1150 C   0  0  0  0  0
    0.9160    0.9240   -0.4010 N   0  0  0  0  0
    1.0510   -0.4790    0.0120 C   0  0  0  0  0
    2.4610   -0.9470   -0.2110 C   0  0  0  0  0
    3.4830   -0.1030   -0.3910 N   0  0  0  0  0
    3.3190    1.3470   -0.4230 C   0  0  0  0  0
    1.9810    1.7370    0.2080 C   0  0  0  0  0
    2.6820   -2.1390   -0.2290 O   0  0  0  0  0
    1.7070    3.2210   -0.0460 C   0  0  0  0  0
    2.0280    1.4750    1.7150 C   0  0  0  0  0
    4.7680   -0.6350   -0.5550 C   0  0  0  0  0
    5.5780   -0.8530    0.5530 C   0  0  0  0  0
    6.8460   -1.3780    0.3870 C   0  0  0  0  0
    7.3080   -1.6850   -0.8800 C   0  0  0  0  0
    6.5040   -1.4680   -1.9840 C   0  0  0  0  0
    5.2330   -0.9500   -1.8240 C   0  0  0  0  0
    4.9990   -0.4670    2.1430 CL  0  0  0  0  0
   -3.8580   -0.2100    0.0720 C   0  0  0  0  0
   -3.5140   -1.3350   -0.2220 O   0  0  0  0  0
   -5.1590    0.0610    0.2960 N   0  0  0  0  0
   -6.1590   -1.0050    0.1830 C   0  0  0  0  0
   -7.5470   -0.4360    0.4840 C   0  0  0  0  0
   -8.5900   -1.5480    0.3660 C   0  0  0  0  0
   -9.9590   -1.0100    0.7870 C   0  0  0  0  0
   -8.6570   -2.0340   -1.0830 C   0  0  0  0  0
   -2.8440    1.2930    1.1990 H   0  0  0  0  0
   -3.1520    1.5860   -1.8240 H   0  0  0  0  0
   -4.1350    2.4130   -0.5920 H   0  0  0  0  0
   -2.1450    3.4790    0.1990 H   0  0  0  0  0
   -0.8140    2.1310   -2.0590 H   0  0  0  0  0
   -0.0790    3.3580   -0.9990 H   0  0  0  0  0
   -0.3870    1.8660    0.9530 H   0  0  0  0  0
   -1.1890   -0.4430    0.6240 H   0  0  0  0  0
   -1.4380   -0.1240   -1.1110 H   0  0  0  0  0
    0.8030   -0.5710    1.0690 H   0  0  0  0  0
    0.3700   -1.0960   -0.5740 H   0  0  0  0  0
    4.1310    1.8150    0.1340 H   0  0  0  0  0
    3.3460    1.6910   -1.4570 H   0  0  0  0  0
    1.5900    3.3910   -1.1160 H   0  0  0  0  0
    0.7940    3.5160    0.4710 H   0  0  0  0  0
    2.5430    3.8140    0.3260 H   0  0  0  0  0
    2.8260    2.0680    2.1620 H   0  0  0  0  0
    1.0740    1.7530    2.1620 H   0  0  0  0  0
    2.2180    0.4170    1.8930 H   0  0  0  0  0
    7.4760   -1.5480    1.2470 H   0  0  0  0  0
    8.3010   -2.0900   -1.0080 H   0  0  0  0  0
    6.8680   -1.7090   -2.9720 H   0  0  0  0  0
    4.6060   -0.7810   -2.6870 H   0  0  0  0  0
   -5.4340    0.9610    0.5310 H   0  0  0  0  0
   -6.1440   -1.4110   -0.8280 H   0  0  0  0  0
   -5.9280   -1.7960    0.8960 H   0  0  0  0  0
   -7.5610   -0.0290    1.4950 H   0  0  0  0  0
   -7.7770    0.3560   -0.2290 H   0  0  0  0  0
   -8.3110   -2.3790    1.0150 H   0  0  0  0  0
  -10.2380   -0.1800    0.1390 H   0  0  0  0  0
  -10.7030   -1.8030    0.7040 H   0  0  0  0  0
   -9.9120   -0.6640    1.8200 H   0  0  0  0  0
   -7.6820   -2.4170   -1.3830 H   0  0  0  0  0
   -9.4010   -2.8270   -1.1670 H   0  0  0  0  0
   -8.9360   -1.2040   -1.7320 H   0  0  0  0  0
  1 23  1  0  0  0
  1 31  1  0  0  0
  2  1  1  0  0  0
  2 32  1  0  0  0
  2 33  1  0  0  0
  3  2  1  0  0  0
  3 34  1  0  0  0
  4  5  1  0  0  0
  4  3  1  0  0  0
  4 35  1  0  0  0
  4 36  1  0  0  0
  5  6  1  0  0  0
  5 37  1  0  0  0
  6  1  1  0  0  0
  6 38  1  0  0  0
  6 39  1  0  0  0
  7  8  1  0  0  0
  7  5  1  0  0  0
  8 40  1  0  0  0
  8 41  1  0  0  0
  9 13  2  0  0  0
  9  8  1  0  0  0
 10  9  1  0  0  0
 11 10  1  0  0  0
 11 12  1  0  0  0
 11 42  1  0  0  0
 11 43  1  0  0  0
 12 15  1  0  0  0
 12  7  1  0  0  0
 14 12  1  0  0  0
 14 44  1  0  0  0
 14 45  1  0  0  0
 14 46  1  0  0  0
 15 47  1  0  0  0
 15 48  1  0  0  0
 15 49  1  0  0  0
 16 10  1  0  0  0
 17 16  1  0  0  0
 17 22  1  0  0  0
 18 17  2  0  0  0
 18 50  1  0  0  0
 19 20  2  0  0  0
 19 18  1  0  0  0
 19 51  1  0  0  0
 20 21  1  0  0  0
 20 52  1  0  0  0
 21 16  2  0  0  0
 21 53  1  0  0  0
 23 24  2  0  0  0
 23 25  1  0  0  0
 25 26  1  0  0  0
 25 54  1  0  0  0
 26 27  1  0  0  0
 26 55  1  0  0  0
 26 56  1  0  0  0
 27 28  1  0  0  0
 27 57  1  0  0  0
 27 58  1  0  0  0
 28 59  1  0  0  0
 29 28  1  0  0  0
 29 60  1  0  0  0
 29 61  1  0  0  0
 29 62  1  0  0  0
 30 28  1  0  0  0
 30 63  1  0  0  0
 30 64  1  0  0  0
 30 65  1  0  0  0
M  END
$$$$
