VYF
  CCTOOLS-0919241028

 77 79  0  0  1  0  0  0  0  0999 V2000
   -2.3290    0.9150   -0.6320 C   0  0  0  0  0
   -2.5980    1.1200   -2.1240 C   0  0  0  0  0
   -1.5620    1.9920   -2.6950 N   0  0  0  0  0
   -0.2310    1.3830   -2.5740 C   0  0  0  0  0
    0.1080    1.1860   -1.0940 C   0  0  0  0  0
   -0.9460    0.2830   -0.4490 C   0  0  0  0  0
    1.4310    0.5590   -0.9740 N   0  0  0  0  0
    1.5230   -0.2450    0.2520 C   0  0  0  0  0
    2.9270   -0.7490    0.4310 C   0  0  0  0  0
    3.9730   -0.2230   -0.2160 N   0  0  0  0  0
    3.8430    0.8630   -1.1830 C   0  0  0  0  0
    2.5000    1.5710   -0.9990 C   0  0  0  0  0
    3.1210   -1.6710    1.1950 O   0  0  0  0  0
    2.5030    2.3450    0.3210 C   0  0  0  0  0
    2.2650    2.5360   -2.1630 C   0  0  0  0  0
    5.2480   -0.7370    0.0450 C   0  0  0  0  0
    6.0260   -0.1890    1.0590 C   0  0  0  0  0
    7.2850   -0.6990    1.3140 C   0  0  0  0  0
    7.7710   -1.7530    0.5620 C   0  0  0  0  0
    6.9990   -2.3000   -0.4470 C   0  0  0  0  0
    5.7370   -1.7990   -0.7030 C   0  0  0  0  0
    5.4170    1.1350    2.0020 CL  0  0  0  0  0
   -3.3790    0.0040   -0.0520 C   0  0  0  0  0
   -3.0550   -1.0470    0.4600 O   0  0  0  0  0
   -4.6790    0.3570   -0.1010 N   0  0  0  0  0
   -5.7010   -0.5290    0.4630 C   0  0  0  0  0
   -6.9310    0.2930    0.8530 C   0  0  0  0  0
   -6.0970   -1.5780   -0.5780 C   0  0  0  0  0
   -4.8980   -2.4800   -0.8750 C   0  0  0  0  0
   -4.5340   -3.2740    0.3800 C   0  0  0  0  0
   -5.2560   -3.4480   -2.0050 C   0  0  0  0  0
   -6.5480    1.2980    1.9410 C   0  0  0  0  0
   -7.7420    2.2070    2.2380 C   0  0  0  0  0
   -6.1510    0.5460    3.2130 C   0  0  0  0  0
   -2.3600    1.8780   -0.1210 H   0  0  0  0  0
   -2.5810    0.1560   -2.6320 H   0  0  0  0  0
   -3.5760    1.5840   -2.2570 H   0  0  0  0  0
   -1.5830    2.9050   -2.2670 H   0  0  0  0  0
   -0.2260    0.4180   -3.0790 H   0  0  0  0  0
    0.5100    2.0370   -3.0330 H   0  0  0  0  0
    0.1170    2.1530   -0.5910 H   0  0  0  0  0
   -0.7320    0.1760    0.6150 H   0  0  0  0  0
   -0.9280   -0.6960   -0.9260 H   0  0  0  0  0
    1.2470    0.3690    1.1090 H   0  0  0  0  0
    0.8420   -1.0930    0.1800 H   0  0  0  0  0
    4.6520    1.5780   -1.0340 H   0  0  0  0  0
    3.9030    0.4580   -2.1930 H   0  0  0  0  0
    3.3040    3.0850    0.3060 H   0  0  0  0  0
    1.5450    2.8480    0.4500 H   0  0  0  0  0
    2.6640    1.6520    1.1470 H   0  0  0  0  0
    2.1670    1.9710   -3.0900 H   0  0  0  0  0
    1.3520    3.1040   -1.9850 H   0  0  0  0  0
    3.1090    3.2210   -2.2430 H   0  0  0  0  0
    7.8900   -0.2740    2.1010 H   0  0  0  0  0
    8.7570   -2.1460    0.7590 H   0  0  0  0  0
    7.3820   -3.1230   -1.0330 H   0  0  0  0  0
    5.1360   -2.2270   -1.4910 H   0  0  0  0  0
   -4.9390    1.1970   -0.5100 H   0  0  0  0  0
   -5.3020   -1.0270    1.3470 H   0  0  0  0  0
   -7.3020    0.8280   -0.0220 H   0  0  0  0  0
   -7.7080   -0.3720    1.2290 H   0  0  0  0  0
   -6.9190   -2.1810   -0.1910 H   0  0  0  0  0
   -6.4130   -1.0790   -1.4940 H   0  0  0  0  0
   -4.0490   -1.8680   -1.1770 H   0  0  0  0  0
   -5.3830   -3.8870    0.6830 H   0  0  0  0  0
   -3.6790   -3.9170    0.1690 H   0  0  0  0  0
   -4.2790   -2.5850    1.1850 H   0  0  0  0  0
   -5.5160   -2.8830   -2.9000 H   0  0  0  0  0
   -4.4020   -4.0910   -2.2170 H   0  0  0  0  0
   -6.1060   -4.0610   -1.7030 H   0  0  0  0  0
   -5.7080    1.9020    1.5990 H   0  0  0  0  0
   -8.5530    1.6150    2.6630 H   0  0  0  0  0
   -7.4440    2.9780    2.9490 H   0  0  0  0  0
   -8.0810    2.6760    1.3140 H   0  0  0  0  0
   -6.9910   -0.0580    3.5550 H   0  0  0  0  0
   -5.3000   -0.1020    3.0010 H   0  0  0  0  0
   -5.8790    1.2620    3.9890 H   0  0  0  0  0
  1 23  1  0  0  0
  1 35  1  0  0  0
  2  1  1  0  0  0
  2 36  1  0  0  0
  2 37  1  0  0  0
  3  2  1  0  0  0
  3 38  1  0  0  0
  4  5  1  0  0  0
  4  3  1  0  0  0
  4 39  1  0  0  0
  4 40  1  0  0  0
  5  6  1  0  0  0
  5 41  1  0  0  0
  6  1  1  0  0  0
  6 42  1  0  0  0
  6 43  1  0  0  0
  7  8  1  0  0  0
  7  5  1  0  0  0
  8 44  1  0  0  0
  8 45  1  0  0  0
  9 13  2  0  0  0
  9  8  1  0  0  0
 10  9  1  0  0  0
 11 10  1  0  0  0
 11 12  1  0  0  0
 11 46  1  0  0  0
 11 47  1  0  0  0
 12  7  1  0  0  0
 12 14  1  0  0  0
 14 48  1  0  0  0
 14 49  1  0  0  0
 14 50  1  0  0  0
 15 12  1  0  0  0
 15 51  1  0  0  0
 15 52  1  0  0  0
 15 53  1  0  0  0
 16 10  1  0  0  0
 17 16  1  0  0  0
 17 22  1  0  0  0
 18 17  2  0  0  0
 18 54  1  0  0  0
 19 20  2  0  0  0
 19 18  1  0  0  0
 19 55  1  0  0  0
 20 21  1  0  0  0
 20 56  1  0  0  0
 21 16  2  0  0  0
 21 57  1  0  0  0
 23 24  2  0  0  0
 23 25  1  0  0  0
 25 26  1  0  0  0
 25 58  1  0  0  0
 26 27  1  0  0  0
 26 28  1  0  0  0
 26 59  1  0  0  0
 27 60  1  0  0  0
 27 61  1  0  0  0
 28 62  1  0  0  0
 28 63  1  0  0  0
 29 28  1  0  0  0
 29 64  1  0  0  0
 30 29  1  0  0  0
 30 65  1  0  0  0
 30 66  1  0  0  0
 30 67  1  0  0  0
 31 29  1  0  0  0
 31 68  1  0  0  0
 31 69  1  0  0  0
 31 70  1  0  0  0
 32 34  1  0  0  0
 32 33  1  0  0  0
 32 27  1  0  0  0
 32 71  1  0  0  0
 33 72  1  0  0  0
 33 73  1  0  0  0
 33 74  1  0  0  0
 34 75  1  0  0  0
 34 76  1  0  0  0
 34 77  1  0  0  0
M  END
$$$$
