REMARK  Name = C41
REMARK  29 active torsions:
REMARK  status: ('A' for Active; 'I' for Inactive)
REMARK    1  A    between atoms: C_1  and  O_2
REMARK    2  A    between atoms: O_2  and  C_3
REMARK    3  A    between atoms: C_3  and  C_4
REMARK    4  A    between atoms: C_4  and  C_5
REMARK    5  A    between atoms: C_5  and  O_6
REMARK    6  A    between atoms: O_6  and  C_7
REMARK    7  A    between atoms: C_9  and  C_15
REMARK    8  A    between atoms: C_12  and  O_13
REMARK    9  A    between atoms: O_13  and  C_14
REMARK   10  A    between atoms: C_15  and  C_16
REMARK   11  A    between atoms: C_16  and  C_17
REMARK   12  A    between atoms: C_16  and  C_20
REMARK   13  A    between atoms: C_17  and  C_18
REMARK   14  A    between atoms: C_17  and  C_19
REMARK   15  A    between atoms: C_20  and  C_21
REMARK   16  A    between atoms: C_21  and  N_22
REMARK   17  A    between atoms: C_21  and  C_23
REMARK   18  A    between atoms: C_23  and  O_24
REMARK   19  A    between atoms: C_23  and  C_25
REMARK   20  A    between atoms: C_25  and  C_26
REMARK   21  A    between atoms: C_26  and  C_27
REMARK   22  A    between atoms: C_26  and  C_30
REMARK   23  A    between atoms: C_27  and  C_28
REMARK   24  A    between atoms: C_27  and  C_29
REMARK   25  A    between atoms: N_32  and  C_33
REMARK   26  A    between atoms: C_33  and  C_34
REMARK   27  A    between atoms: C_34  and  C_35
REMARK   28  A    between atoms: C_34  and  C_36
REMARK   29  A    between atoms: C_34  and  C_37
REMARK                            x       y       z     vdW  Elec       q    Type
REMARK                         _______ _______ _______ _____ _____    ______ ____
ROOT
ATOM      1  C   UNL     1       0.622  -0.033   0.014  0.00  0.00    +0.187 C 
ENDROOT
BRANCH   1   2
ATOM      2  N   UNL     1       0.432  -0.780  -1.236  0.00  0.00    -0.808 NA
ATOM      3  H   UNL     1       1.203  -0.627  -1.870  0.00  0.00    +0.280 HD
ATOM      4  H   UNL     1       0.305  -1.765  -1.054  0.00  0.00    +0.280 HD
ENDBRANCH   1   2
BRANCH   1   5
ATOM      5  C   UNL     1      -0.559  -0.296   0.950  0.00  0.00    +0.025 C 
BRANCH   5   6
ATOM      6  C   UNL     1      -1.833   0.295   0.341  0.00  0.00    +0.059 C 
BRANCH   6   7
ATOM      7  C   UNL     1      -2.202  -0.483  -0.923  0.00  0.00    +0.153 C 
ATOM      8  C   UNL     1      -2.603  -1.910  -0.545  0.00  0.00    +0.037 C 
ATOM      9  C   UNL     1      -3.375   0.207  -1.623  0.00  0.00    +0.088 C 
ENDBRANCH   6   7
BRANCH   6  10
ATOM     10  C   UNL     1      -2.976   0.196   1.353  0.00  0.00    -0.009 C 
BRANCH  10  13
ATOM     11  C   UNL     1      -6.382   1.400   0.250  0.00  0.00    +0.211 A 
ATOM     12  C   UNL     1      -5.345   0.568   0.639  0.00  0.00    -0.113 A 
ATOM     13  C   UNL     1      -4.103   1.102   0.929  0.00  0.00    +0.062 A 
ATOM     14  C   UNL     1      -3.892   2.465   0.831  0.00  0.00    -0.030 A 
ATOM     15  C   UNL     1      -4.923   3.300   0.443  0.00  0.00    -0.036 A 
ATOM     16  C   UNL     1      -6.169   2.772   0.145  0.00  0.00    +0.199 A 
BRANCH  16  17
ATOM     17  O   UNL     1      -7.182   3.591  -0.242  0.00  0.00    -0.468 OA
ATOM     18  C   UNL     1      -6.891   4.988  -0.327  0.00  0.00    +0.248 C 
ENDBRANCH  16  17
BRANCH  11  19
ATOM     19  O   UNL     1      -7.605   0.877  -0.036  0.00  0.00    -0.484 OA
BRANCH  19  20
ATOM     20  C   UNL     1      -7.749  -0.539   0.087  0.00  0.00    +0.201 C 
BRANCH  20  21
ATOM     21  C   UNL     1      -9.182  -0.939  -0.272  0.00  0.00    +0.123 C 
BRANCH  21  22
ATOM     22  C   UNL     1      -9.336  -2.455  -0.140  0.00  0.00    +0.197 C 
BRANCH  22  24
ATOM     23  C   UNL     1     -10.926  -4.232  -0.384  0.00  0.00    +0.226 C 
ATOM     24  O   UNL     1     -10.674  -2.828  -0.475  0.00  0.00    -0.468 OA
ENDBRANCH  22  24
ENDBRANCH  21  22
ENDBRANCH  20  21
ENDBRANCH  19  20
ENDBRANCH  11  19
ENDBRANCH  10  13
ENDBRANCH   6  10
ENDBRANCH   5   6
ENDBRANCH   1   5
BRANCH   1  25
ATOM     25  C   UNL     1       1.918  -0.489   0.689  0.00  0.00    +0.162 C 
BRANCH  25  26
ATOM     26  O   UNL     1       1.839  -1.887   0.976  0.00  0.00    -0.605 OA
ATOM     27  H   UNL     1       1.785  -2.447   0.190  0.00  0.00    +0.266 HD
ENDBRANCH  25  26
BRANCH  25  28
ATOM     28  C   UNL     1       3.100  -0.226  -0.247  0.00  0.00    +0.077 C 
BRANCH  28  29
ATOM     29  C   UNL     1       4.409  -0.478   0.503  0.00  0.00    -0.063 C 
BRANCH  29  30
ATOM     30  C   UNL     1       5.572  -0.076  -0.368  0.00  0.00    +0.517 C 
ATOM     31  O   UNL     1       5.402   0.125  -1.551  0.00  0.00    -0.549 OA
ATOM     32  N   UNL     1       6.801   0.058   0.169  0.00  0.00    -0.718 N 
ATOM     33  H   UNL     1       6.929  -0.060   1.123  0.00  0.00    +0.278 HD
BRANCH  32  34
ATOM     34  C   UNL     1       7.943   0.383  -0.689  0.00  0.00    +0.303 C 
BRANCH  34  35
ATOM     35  C   UNL     1       9.210   0.478   0.163  0.00  0.00    -0.006 C 
ATOM     36  C   UNL     1       9.036   1.574   1.217  0.00  0.00    +0.086 C 
ATOM     37  C   UNL     1       9.459  -0.862   0.858  0.00  0.00    +0.073 C 
BRANCH  35  38
ATOM     38  C   UNL     1      10.385   0.812  -0.719  0.00  0.00    +0.565 C 
ATOM     39  O   UNL     1      10.225   0.960  -1.912  0.00  0.00    -0.548 OA
ATOM     40  N   UNL     1      11.614   0.947  -0.182  0.00  0.00    -0.987 N 
ATOM     41  H   UNL     1      11.743   0.828   0.772  0.00  0.00    +0.333 HD
ATOM     42  H   UNL     1      12.371   1.162  -0.750  0.00  0.00    +0.364 HD
ENDBRANCH  35  38
ENDBRANCH  34  35
ENDBRANCH  32  34
ENDBRANCH  29  30
BRANCH  29  43
ATOM     43  C   UNL     1       4.521  -1.964   0.850  0.00  0.00    +0.162 C 
ATOM     44  C   UNL     1       4.487  -2.792  -0.436  0.00  0.00    +0.085 C 
ATOM     45  C   UNL     1       5.839  -2.218   1.585  0.00  0.00    +0.043 C 
ENDBRANCH  29  43
ENDBRANCH  28  29
ENDBRANCH  25  28
ENDBRANCH   1  25
TORSDOF 21
