REMARK SMILES COCCCOc1cc(C[C@@H](C[C@H](N)[C@@H](O)C[C@H](C(=O)NCC(C)(C)C(N)=O)C(C)C)C(C)C)ccc1OC
REMARK SMILES IDX 12 1 11 2 10 3 9 4 7 5 8 6 37 7 36 8 35 9 6 10 5 11 4 12
REMARK SMILES IDX 3 13 2 14 1 15 38 16 39 17 32 18 33 19 34 20 13 21 14 22
REMARK SMILES IDX 15 25 16 26 17 28 18 29 29 30 30 31 31 32 19 33 21 34 20 35
REMARK SMILES IDX 22 37 23 38 24 39 25 40 26 41 27 42 28 43
REMARK H PARENT 14 23 14 24 16 27 21 36 27 44 27 45
ROOT
ATOM      1  C   UNL     1      -0.559  -0.296   0.950  1.00  0.00     0.025 C 
ENDROOT
BRANCH   1   2
ATOM      2  C   UNL     1      -1.833   0.295   0.341  1.00  0.00    -0.003 C 
BRANCH   2   3
ATOM      3  C   UNL     1      -2.976   0.196   1.353  1.00  0.00     0.039 C 
BRANCH   3   4
ATOM      4  C   UNL     1      -4.103   1.102   0.929  1.00  0.00    -0.044 A 
ATOM      5  C   UNL     1      -6.382   1.400   0.250  1.00  0.00     0.161 A 
ATOM      6  C   UNL     1      -5.345   0.568   0.639  1.00  0.00     0.054 A 
ATOM      7  C   UNL     1      -6.169   2.772   0.145  1.00  0.00     0.160 A 
ATOM      8  C   UNL     1      -4.923   3.300   0.443  1.00  0.00     0.051 A 
ATOM      9  C   UNL     1      -3.892   2.465   0.831  1.00  0.00     0.008 A 
BRANCH   5  10
ATOM     10  O   UNL     1      -7.605   0.877  -0.036  1.00  0.00    -0.490 OA
BRANCH  10  11
ATOM     11  C   UNL     1      -7.749  -0.539   0.087  1.00  0.00     0.232 C 
BRANCH  11  12
ATOM     12  C   UNL     1      -9.182  -0.939  -0.272  1.00  0.00     0.070 C 
BRANCH  12  13
ATOM     13  C   UNL     1      -9.336  -2.455  -0.140  1.00  0.00     0.163 C 
BRANCH  13  14
ATOM     14  O   UNL     1     -10.674  -2.828  -0.475  1.00  0.00    -0.385 OA
ATOM     15  C   UNL     1     -10.926  -4.232  -0.384  1.00  0.00     0.194 C 
ENDBRANCH  13  14
ENDBRANCH  12  13
ENDBRANCH  11  12
ENDBRANCH  10  11
ENDBRANCH   5  10
BRANCH   7  16
ATOM     16  O   UNL     1      -7.182   3.591  -0.242  1.00  0.00    -0.493 OA
ATOM     17  C   UNL     1      -6.891   4.988  -0.327  1.00  0.00     0.278 C 
ENDBRANCH   7  16
ENDBRANCH   3   4
ENDBRANCH   2   3
BRANCH   2  18
ATOM     18  C   UNL     1      -2.202  -0.483  -0.923  1.00  0.00    -0.014 C 
ATOM     19  C   UNL     1      -2.603  -1.910  -0.545  1.00  0.00     0.007 C 
ATOM     20  C   UNL     1      -3.375   0.207  -1.623  1.00  0.00     0.007 C 
ENDBRANCH   2  18
ENDBRANCH   1   2
BRANCH   1  21
ATOM     21  C   UNL     1       0.622  -0.033   0.014  1.00  0.00     0.080 C 
BRANCH  21  22
ATOM     22  N   UNL     1       0.432  -0.780  -1.236  1.00  0.00    -0.325 NA
ATOM     23  H   UNL     1       1.203  -0.627  -1.870  1.00  0.00     0.119 HD
ATOM     24  H   UNL     1       0.305  -1.765  -1.054  1.00  0.00     0.119 HD
ENDBRANCH  21  22
BRANCH  21  25
ATOM     25  C   UNL     1       1.918  -0.489   0.689  1.00  0.00     0.132 C 
BRANCH  25  26
ATOM     26  O   UNL     1       1.839  -1.887   0.976  1.00  0.00    -0.391 OA
ATOM     27  H   UNL     1       1.785  -2.447   0.190  1.00  0.00     0.211 HD
ENDBRANCH  25  26
BRANCH  25  28
ATOM     28  C   UNL     1       3.100  -0.226  -0.247  1.00  0.00     0.047 C 
BRANCH  28  29
ATOM     29  C   UNL     1       4.409  -0.478   0.503  1.00  0.00     0.083 C 
BRANCH  29  30
ATOM     30  C   UNL     1       4.521  -1.964   0.850  1.00  0.00    -0.005 C 
ATOM     31  C   UNL     1       4.487  -2.792  -0.436  1.00  0.00     0.008 C 
ATOM     32  C   UNL     1       5.839  -2.218   1.585  1.00  0.00     0.008 C 
ENDBRANCH  29  30
BRANCH  29  33
ATOM     33  C   UNL     1       5.572  -0.076  -0.368  1.00  0.00     0.223 C 
ATOM     34  N   UNL     1       6.801   0.058   0.169  1.00  0.00    -0.355 N 
ATOM     35  O   UNL     1       5.402   0.125  -1.551  1.00  0.00    -0.275 OA
ATOM     36  H   UNL     1       6.929  -0.060   1.123  1.00  0.00     0.163 HD
BRANCH  34  37
ATOM     37  C   UNL     1       7.943   0.383  -0.689  1.00  0.00     0.132 C 
BRANCH  37  38
ATOM     38  C   UNL     1       9.210   0.478   0.163  1.00  0.00     0.061 C 
ATOM     39  C   UNL     1       9.036   1.574   1.217  1.00  0.00     0.023 C 
ATOM     40  C   UNL     1       9.459  -0.862   0.858  1.00  0.00     0.023 C 
BRANCH  38  41
ATOM     41  C   UNL     1      10.385   0.812  -0.719  1.00  0.00     0.224 C 
ATOM     42  N   UNL     1      11.614   0.947  -0.182  1.00  0.00    -0.369 N 
ATOM     43  O   UNL     1      10.225   0.960  -1.912  1.00  0.00    -0.275 OA
ATOM     44  H   UNL     1      11.743   0.828   0.772  1.00  0.00     0.159 HD
ATOM     45  H   UNL     1      12.371   1.162  -0.750  1.00  0.00     0.159 HD
ENDBRANCH  38  41
ENDBRANCH  37  38
ENDBRANCH  34  37
ENDBRANCH  29  33
ENDBRANCH  28  29
ENDBRANCH  25  28
ENDBRANCH  21  25
ENDBRANCH   1  21
TORSDOF 21
